* Library of Standard 74 TTL Family Digital Models
*
*  Copyright OrCAD, Inc. 1998 All Rights Reserved.
*
*
* $Revision:   1.9  $
* $Author:   RPEREZ  $
* $Date:   16 Apr 1998 13:32:32  $
*
*
*$
*-------------------------------------------------------------------------
* 7400  Quadruple 2-input Positive-Nand Gates    
*
* The TTL Data Book, Vol 2, 1985, TI
* tdn   06/23/89	Update interface and model names
*
.subckt 7400  A B Y
+	optional: DPWR=$G_DPWR DGND=$G_DGND
+	params: MNTYMXDLY=0 IO_LEVEL=0
U1 nand(2) DPWR DGND
+	A B   Y 
+	D_00 IO_STD MNTYMXDLY={MNTYMXDLY} IO_LEVEL={IO_LEVEL} 
.ends
*
.model D_00 ugate (
+	tplhty=11ns	tplhmx=22ns
+	tphlty=7ns	tphlmx=15ns
+	)
*$
*---------------------------------------------------------------------
* 7401  Quadruple 2-input Positive-Nand Gates with Open-Collector Outputs 
*
* The TTL Data Book, Vol 2, 1985, TI
* tdn 	06/23/89	Update interface and model names
*
.subckt 7401  A B Y
+	optional: DPWR=$G_DPWR DGND=$G_DGND
+	params: MNTYMXDLY=0 IO_LEVEL=0
U1 nand(2) DPWR DGND
+	A B   Y 
+	D_01 IO_STD_OC MNTYMXDLY={MNTYMXDLY} IO_LEVEL={IO_LEVEL} 
.ends
*
.model D_01 ugate (
+	tplhty=35ns	tplhmx=55ns
+	tphlty=8ns	tphlmx=15ns
+	)
*$
*-------------------------------------------------------------------------
* 7402  Quadruple 2-input Positive-Nor Gates       
*
* The TTL Data Book, Vol 2, 1985, TI
* tdn	06/23/89	Update interface and model names
*
.subckt 7402  A B Y
+	optional: DPWR=$G_DPWR DGND=$G_DGND
+	params: MNTYMXDLY=0 IO_LEVEL=0
U1 nor(2) DPWR DGND
+	A B   Y 
+	D_02 IO_STD MNTYMXDLY={MNTYMXDLY} IO_LEVEL={IO_LEVEL} 
.ends
*
.model D_02 ugate (
+	tplhty=12ns	tplhmx=22ns
+	tphlty=8ns	tphlmx=15ns
+	)
*$
*-------------------------------------------------------------------------
* 7403  Quadruple 2-input Positive-Nand Gates with Open-Collector Outputs       
*
* The TTL Data Book, Vol 2, 1985, TI
* tdn	06/23/89	Update interface and model names
*
.subckt 7403  A B Y
+	optional: DPWR=$G_DPWR DGND=$G_DGND
+	params: MNTYMXDLY=0 IO_LEVEL=0
U1 nand(2) DPWR DGND
+	A B   Y 
+	D_03 IO_STD_OC MNTYMXDLY={MNTYMXDLY} IO_LEVEL={IO_LEVEL} 
.ends
*
.model D_03 ugate (
+	tplhty=35ns	tplhmx=45ns
+	tphlty=8ns	tphlmx=15ns
+	)
*$
*-------------------------------------------------------------------------
* 7404  Hex Inverters       
*
* The TTL Data Book, Vol 2, 1985, TI
* tdn	06/23/89	Update interface and model names
*
.subckt 7404  A Y
+	optional: DPWR=$G_DPWR DGND=$G_DGND
+	params: MNTYMXDLY=0 IO_LEVEL=0
U1 inv DPWR DGND
+	A   Y 
+	D_04 IO_STD MNTYMXDLY={MNTYMXDLY} IO_LEVEL={IO_LEVEL} 
.ends
*
.model D_04 ugate (
+	tplhty=12ns	tplhmx=22ns
+	tphlty=8ns	tphlmx=15ns
+	)
*$
*-------------------------------------------------------------------------
* 7405  Hex Inverters with Open-Collector Outputs      
*
* The TTL Data Book, Vol 2, 1985, TI
* tdn	06/23/89	Update interface and model names
*
.subckt 7405  A Y
+	optional: DPWR=$G_DPWR DGND=$G_DGND
+	params: MNTYMXDLY=0 IO_LEVEL=0
U1 inv DPWR DGND
+	A   Y 
+	D_05 IO_STD_OC MNTYMXDLY={MNTYMXDLY} IO_LEVEL={IO_LEVEL} 
.ends
*
.model D_05 ugate (
+	tplhty=40ns	tplhmx=55ns
+	tphlty=8ns	tphlmx=15ns
+	)
*$
*-------------------------------------------------------------------------
* 7406  Hex Inverter Buffers/Drivers with Open-Collector High-Voltage Outputs 
*
* The TTL Data Book, Vol 2, 1985, TI
* tdn	06/23/89	Update interface and model names
*
.subckt 7406  A Y
+	optional: DPWR=$G_DPWR DGND=$G_DGND
+	params: MNTYMXDLY=0 IO_LEVEL=0
U1 inv DPWR DGND
+	A   Y 
+	D_06 IO_STD_OC MNTYMXDLY={MNTYMXDLY} IO_LEVEL={IO_LEVEL} 
.ends
*
.model D_06 ugate (
+	tplhty=10ns	tplhmx=15ns
+	tphlty=15ns	tphlmx=23ns
+	)
*$
*-------------------------------------------------------------------------
* 7407  Hex Buffers/Drivers with Open-Collector High-Voltage Outputs
* 
* The TTL Data Book, Vol 2, 1985, TI
* tdn	06/23/89	Update interface and model names
*
.subckt 7407  A Y
+	optional: DPWR=$G_DPWR DGND=$G_DGND
+	params: MNTYMXDLY=0 IO_LEVEL=0
U1 buf DPWR DGND
+	A   Y 
+	D_07 IO_STD_OC MNTYMXDLY={MNTYMXDLY} IO_LEVEL={IO_LEVEL} 
.ends
*
.model D_07 ugate (
+	tplhty=6ns	tplhmx=10ns
+	tphlty=20ns	tphlmx=30ns
+	)
*$
*-------------------------------------------------------------------------
* 7408  Quadruple 2-input Positive-And Gates      
*
* The TTL Data Book, Vol 2, 1985, TI
* tdn	06/23/89	Update interface and model names
*
.subckt 7408  A B Y
+	optional: DPWR=$G_DPWR DGND=$G_DGND
+	params: MNTYMXDLY=0 IO_LEVEL=0
U1 and(2) DPWR DGND
+	A B   Y 
+	D_08 IO_STD MNTYMXDLY={MNTYMXDLY} IO_LEVEL={IO_LEVEL} 
.ends
*
.model D_08 ugate (
+	tplhty=17.5ns	tplhmx=27ns
+	tphlty=12ns	tphlmx=19ns
+	)
*$
*-------------------------------------------------------------------------
* 7409  Quadruple 2-input Positive-And Gates with Open-Collector Outputs      
*
* The TTL Data Book, Vol 2, 1985, TI
* tdn	06/23/89	Update interface and model names
*
.subckt 7409  A B Y
+	optional: DPWR=$G_DPWR DGND=$G_DGND
+	params: MNTYMXDLY=0 IO_LEVEL=0
U1 and(2) DPWR DGND
+	A B   Y 
+	D_09 IO_STD_OC MNTYMXDLY={MNTYMXDLY} IO_LEVEL={IO_LEVEL} 
.ends
*
.model D_09 ugate (
+	tplhty=21ns	tplhmx=32ns
+	tphlty=16ns	tphlmx=24ns
+	)
*$
*-------------------------------------------------------------------------
* 7410  Triple 3-input Positive-Nand Gates      
*
* The TTL Data Book, Vol 2, 1985, TI
* tdn	06/23/89	Update interface and model names
*
.subckt 7410  A B C Y
+	optional: DPWR=$G_DPWR DGND=$G_DGND
+	params: MNTYMXDLY=0 IO_LEVEL=0
U1 nand(3) DPWR DGND
+	A B C   Y 
+	D_10 IO_STD MNTYMXDLY={MNTYMXDLY} IO_LEVEL={IO_LEVEL} 
.ends
*
.model D_10 ugate (
+	tplhty=11ns	tplhmx=22ns
+	tphlty=7ns	tphlmx=15ns
+	)
*$
*-------------------------------------------------------------------------
* 7411  Triple 3-input Positive-And Gates
*
* 1989 National Semiconductor
*
.subckt 7411  A B C Y
+	optional: DPWR=$G_DPWR DGND=$G_DGND
+	params: MNTYMXDLY=0 IO_LEVEL=0
U1 and(3) DPWR DGND
+	A B C   Y 
+	D_11 IO_STD MNTYMXDLY={MNTYMXDLY} IO_LEVEL={IO_LEVEL} 
.ends
*
.model D_11 ugate (
+	tplhmx=27ns
+	tphlmx=19ns
+	)
*$
*--------------------------------------------------------------------------
* 7412  Triple 3-input Positive-Nand Gates with Open-Collector Outputs      
* 
* The TTL Data Book, Vol 2, 1985, TI
* tdn	06/23/89	Update interface and model names
*
.subckt 7412  A B C Y
+	optional: DPWR=$G_DPWR DGND=$G_DGND
+	params: MNTYMXDLY=0 IO_LEVEL=0
U1 nand(3) DPWR DGND
+	A B C   Y 
+	D_12 IO_STD_OC MNTYMXDLY={MNTYMXDLY} IO_LEVEL={IO_LEVEL} 
.ends
*
.model D_12 ugate (
+	tplhty=35ns	tplhmx=45ns
+	tphlty=8ns	tphlmx=15ns
+	)
*$
*-------------------------------------------------------------------------
* 7413  Dual 4-input Positive-Nand Schmitt Triggers      
*
* The TTL Data Book, Vol 2, 1985, TI
* tdn	06/23/89	Update interface and model names
*
.subckt 7413  A B C D Y
+	optional: DPWR=$G_DPWR DGND=$G_DGND
+	params: MNTYMXDLY=0 IO_LEVEL=0
* Note: These devices are modeled as simple Nand gates.
*       Hysteresis is modeled in the AtoD interface
*
U1 nand(4) DPWR DGND
+	A B C D   Y 
+	D_13 IO_STD_ST MNTYMXDLY={MNTYMXDLY} IO_LEVEL={IO_LEVEL} 
.ends
*
.model D_13 ugate (
+	tplhty=18ns	tplhmx=27ns
+	tphlty=15ns	tphlmx=22ns
+	)
*$
*-------------------------------------------------------------------------
* 7414  Hex Schmitt-Trigger Inverters      
*
* The TTL Data Book, Vol 2, 1985, TI
* tdn	06/23/89	Update interface and model names
*
.subckt 7414  A Y
+	optional: DPWR=$G_DPWR DGND=$G_DGND
+	params: MNTYMXDLY=0 IO_LEVEL=0
* Note: These devices are modeled as simple inverters
*       Hysteresis is modeled in the AtoD interface
*
U1 inv DPWR DGND
+	A   Y 
+	D_14 IO_STD_ST MNTYMXDLY={MNTYMXDLY} IO_LEVEL={IO_LEVEL} 
.ends
*
.model D_14 ugate (
+	tplhty=15ns	tplhmx=22ns
+	tphlty=15ns	tphlmx=22ns
+	)
*$
*-------------------------------------------------------------------------
* 7416  Hex Inverter Buffers/Drivers with Open-Collector High-Voltage Outputs 
*
* The TTL Data Book, Vol 2, 1985, TI
* tdn	06/26/89	Update interface and model names
*
.subckt 7416  A Y
+	optional: DPWR=$G_DPWR DGND=$G_DGND
+	params: MNTYMXDLY=0 IO_LEVEL=0
U1 inv DPWR DGND
+	A   Y 
+	D_16 IO_STD_OC MNTYMXDLY={MNTYMXDLY} IO_LEVEL={IO_LEVEL} 
.ends
*
.model D_16 ugate (
+	tplhty=10ns	tplhmx=15ns
+	tphlty=15ns	tphlmx=23ns
+	)
*$
*-------------------------------------------------------------------------
* 7417  Hex Buffers/Drivers with Open-Collector High-Voltage Outputs   
*
* The TTL Data Book, Vol 2, 1985, TI
* tdn	06/26/89	Update interface and model names
*
.subckt 7417  A Y
+	optional: DPWR=$G_DPWR DGND=$G_DGND
+	params: MNTYMXDLY=0 IO_LEVEL=0
U1 buf DPWR DGND
+	A   Y 
+	D_17 IO_STD_OC MNTYMXDLY={MNTYMXDLY} IO_LEVEL={IO_LEVEL} 
.ends
*
.model D_17 ugate (
+	tplhty=6ns	tplhmx=10ns
+	tphlty=20ns	tphlmx=30ns
+	)
*$
*-------------------------------------------------------------------------
* 7420  Dual 4-input Positive-Nand Gates       
*
* The TTL Data Book, Vol 2, 1985, TI
* tdn	06/26/89	Update interface and model names
*
.subckt 7420  A B C D Y
+	optional: DPWR=$G_DPWR DGND=$G_DGND
+	params: MNTYMXDLY=0 IO_LEVEL=0
U1 nand(4) DPWR DGND
+	A B C D   Y 
+	D_20 IO_STD MNTYMXDLY={MNTYMXDLY} IO_LEVEL={IO_LEVEL} 
.ends
*
.model D_20 ugate (
+	tplhty=12ns	tplhmx=22ns
+	tphlty=8ns	tphlmx=15ns
+	)
*$
*-------------------------------------------------------------------------
* 7422  Dual 4-input Positive-Nand Gates with Open-Collector Outputs      
*
* The TTL Data Book, Vol 2, 1985, TI
* tdn	06/26/89	Update interface and model names
*
.subckt 7422  A B C D Y
+	optional: DPWR=$G_DPWR DGND=$G_DGND
+	params: MNTYMXDLY=0 IO_LEVEL=0
U1 nand(4) DPWR DGND
+	A B C D   Y 
+	D_22 IO_STD_OC MNTYMXDLY={MNTYMXDLY} IO_LEVEL={IO_LEVEL} 
.ends
*
.model D_22 ugate (
+	tplhty=35ns	tplhmx=45ns
+	tphlty=8ns	tphlmx=15ns
+	)
*$
*-------------------------------------------------------------------------
* 7423  Dual 4-input Nor Gates with Strobe
*
* The TTL Data Book, Vol 2, 1985, TI
* tdn	06/26/89	Update interface and model names
*
.subckt 7423  1A 1B 1C 1D 1G X XBAR 1Y 2A 2B 2C 2D 2G 2Y
+	optional: DPWR=$G_DPWR DGND=$G_DGND
+	params: MNTYMXDLY=0 IO_LEVEL=0
* --- NOTE ---
*
* The x and xbar inputs of this gate should only come from the following
* gates:
*	'60
* 
* PSpice, however, will not check that it is properly connected.
*
UIBUF bufa(2) DPWR DGND
+	1G 2G   1G_BUF 2G_BUF 
+	D0_GATE IO_STD IO_LEVEL={IO_LEVEL} 
U1 inv DPWR DGND
+	XBAR   XBARC 
+	D0_GATE IO_STD IO_LEVEL={IO_LEVEL} 
U11 aoi(2,5) DPWR DGND
+	1A	1G_BUF
+	1B	1G_BUF
+	1C	1G_BUF
+	1D	1G_BUF
+	X	XBARC
+	1Y
+	D_23 IO_STD MNTYMXDLY={MNTYMXDLY} IO_LEVEL={IO_LEVEL} 
U21 aoi(2,4) DPWR DGND
+	2A 2G_BUF 2B 2G_BUF 2C 2G_BUF 2D 2G_BUF   2Y 
+	D_23 IO_STD MNTYMXDLY={MNTYMXDLY} IO_LEVEL={IO_LEVEL} 
.ends
*
.model D_23 ugate (
+	tplhty=13ns	tplhmx=22ns
+	tphlty=8ns	tphlmx=15ns
+	)
*$
*-------------------------------------------------------------------------
* 7425  Dual 4-input Nor Gates with Strobe      
*
* The TTL Data Book, Vol 2, 1985, TI
* tdn	06/26/89	Update interface and model names
*
.subckt 7425  A B C D G Y
+	optional: DPWR=$G_DPWR DGND=$G_DGND
+	params: MNTYMXDLY=0 IO_LEVEL=0
U1 or(4) DPWR DGND
+	A B C D   X 
+	D0_GATE IO_STD IO_LEVEL={IO_LEVEL} 
U2 nand(2) DPWR DGND
+	X G   Y 
+	D_25 IO_STD MNTYMXDLY={MNTYMXDLY} IO_LEVEL={IO_LEVEL} 
.ends
*
.model D_25 ugate (
+	tplhty=13ns	tplhmx=22ns
+	tphlty=8ns	tphlmx=15ns
+	)
*$
*-------------------------------------------------------------------------
* 7426  High-Voltage Interface Positive-Nand Gates
*
* The TTL Data Book, Vol 2, 1985, TI
* tdn	06/26/89	Update interface and model names
*
.subckt 7426  A B Y
+	optional: DPWR=$G_DPWR DGND=$G_DGND
+	params: MNTYMXDLY=0 IO_LEVEL=0
U1 nand(2) DPWR DGND
+	A B   Y 
+	D_26 IO_STD_OC MNTYMXDLY={MNTYMXDLY} IO_LEVEL={IO_LEVEL} 
.ends
*
.model D_26 ugate (
+	tplhty=16ns	tplhmx=24ns
+	tphlty=11ns	tphlmx=17ns
+	)
*$
*-------------------------------------------------------------------------
* 7427  Triple 3-input Positive-Nor Gates           
*
* The TTL Data Book, Vol 2, 1985, TI
* tdn	06/26/89	Update interface and model names
*
.subckt 7427  A B C Y
+	optional: DPWR=$G_DPWR DGND=$G_DGND
+	params: MNTYMXDLY=0 IO_LEVEL=0
U1 nor(3) DPWR DGND
+	A B C   Y 
+	D_27 IO_STD MNTYMXDLY={MNTYMXDLY} IO_LEVEL={IO_LEVEL} 
.ends
*
.model D_27 ugate (
+	tplhty=10ns	tplhmx=15ns
+	tphlty=7ns	tphlmx=11ns
+	)
*$
*-------------------------------------------------------------------------
* 7428  Quadruple 2-input Positive-Nor Buffers
*
* The TTL Data Book, Vol 2, 1985, TI
* tdn	06/26/89	Update interface and model names
*
.subckt 7428  A B Y
+	optional: DPWR=$G_DPWR DGND=$G_DGND
+	params: MNTYMXDLY=0 IO_LEVEL=0
U1 nor(2) DPWR DGND
+	A B   Y 
+	D_28 IO_STD MNTYMXDLY={MNTYMXDLY} IO_LEVEL={IO_LEVEL} 
.ends
*
.model D_28 ugate (
+	tplhty=6ns	tplhmx=9ns
+	tphlty=8ns	tphlmx=12ns
+	)
*$
*-------------------------------------------------------------------------
* 7430  8-input Positive-Nand Gates        
*
* The TTL Data Book, Vol 2, 1985, TI
* tdn	06/26/89	Update interface and model names
*
.subckt 7430  A B C D E F G H Y
+	optional: DPWR=$G_DPWR DGND=$G_DGND
+	params: MNTYMXDLY=0 IO_LEVEL=0
U1 nand(8) DPWR DGND
+	A B C D E F G H   Y 
+	D_30 IO_STD MNTYMXDLY={MNTYMXDLY} IO_LEVEL={IO_LEVEL} 
.ends
*
.model D_30 ugate (
+	tplhty=13ns	tplhmx=22ns
+	tphlty=8ns	tphlmx=15ns
+	)
*$
*-------------------------------------------------------------------------
* 7432  Quadruple 2-input Positive-Or Gates           
*
* The TTL Data Book, Vol 2, 1985, TI
* tdn	06/26/89	Update interface and model names
*
.subckt 7432  A B Y
+	optional: DPWR=$G_DPWR DGND=$G_DGND
+	params: MNTYMXDLY=0 IO_LEVEL=0
U1 or(2) DPWR DGND
+	A B   Y 
+	D_32 IO_STD MNTYMXDLY={MNTYMXDLY} IO_LEVEL={IO_LEVEL} 
.ends
*
.model D_32 ugate (
+	tplhty=10ns	tplhmx=15ns
+	tphlty=14ns	tphlmx=22ns
+	)
*$
*-------------------------------------------------------------------------
* 7433  Quadruple 2-input Positive-Nor Buffers w/ Open-Collector Outputs
*
* The TTL Data Book, Vol 2, 1985, TI
* tdn	06/26/89	Update interface and model names
*
.subckt 7433  A B Y
+	optional: DPWR=$G_DPWR DGND=$G_DGND
+	params: MNTYMXDLY=0 IO_LEVEL=0
U1 nor(2) DPWR DGND
+	A B   Y 
+	D_33 IO_STD_OC MNTYMXDLY={MNTYMXDLY} IO_LEVEL={IO_LEVEL} 
.ends
*
.model D_33 ugate (
+	tplhty=10ns	tplhmx=15ns
+	tphlty=12ns	tphlmx=18ns
+	)
*$
*-------------------------------------------------------------------------
* 7437  Quadruple 2-input Positive-Nand Buffers
*
* The TTL Data Book, Vol 2, 1985, TI
* tdn	06/26/89	Update interface and model names
*
.subckt 7437  A B Y
+	optional: DPWR=$G_DPWR DGND=$G_DGND
+	params: MNTYMXDLY=0 IO_LEVEL=0
U1 nand(2) DPWR DGND
+	A B   Y 
+	D_37 IO_STD MNTYMXDLY={MNTYMXDLY} IO_LEVEL={IO_LEVEL} 
.ends
*
.model D_37 ugate (
+	tplhty=13ns	tphlty=8ns
+	tplhmx=22ns	tphlmx=15ns
+	)
*$
*-------------------------------------------------------------------------
* 7438  Quadruple 2-input Positive-Nand Buffers w/ Open-Collector Outputs
*
* The TTL Data Book, Vol 2, 1985, TI
* tdn	06/26/89	Update interface and model names
*
.subckt 7438  A B Y
+	optional: DPWR=$G_DPWR DGND=$G_DGND
+	params: MNTYMXDLY=0 IO_LEVEL=0
U1 nand(2) DPWR DGND
+	A B   Y 
+	D_38 IO_STD_OC MNTYMXDLY={MNTYMXDLY} IO_LEVEL={IO_LEVEL} 
.ends
*
.model D_38 ugate (
+	tplhty=14ns	tplhmx=22ns
+	tphlty=11ns	tphlmx=18ns
+	)
*$
*-------------------------------------------------------------------------
* 7439  Quadruple 2-input Positive Nand Buffers with Open-Collector Outputs
*
* The TTL Data Book, Vol 2, 1985, TI
* tdn	08/10/89	Update interface and model names
*
.subckt 7439  A B Y
+	optional: DPWR=$G_DPWR DGND=$G_DGND
+	params: MNTYMXDLY=0 IO_LEVEL=0
U1 nand(2) DPWR DGND
+	A B   Y 
+	D_39 IO_STD_OC MNTYMXDLY={MNTYMXDLY} IO_LEVEL={IO_LEVEL} 
.ends
*
.model D_39 ugate (
+	tphlmx=18ns	tplhmx=22ns
+	)
*$
*-------------------------------------------------------------------------
* 7440  Dual 4-input Positive-Nand Buffers
*
* The TTL Data Book, Vol 2, 1985, TI
* tdn	06/26/89	Update interface and model names
*
.subckt 7440  A B C D Y
+	optional: DPWR=$G_DPWR DGND=$G_DGND
+	params: MNTYMXDLY=0 IO_LEVEL=0
U1 nand(4) DPWR DGND
+	A B C D   Y 
+	D_40 IO_STD MNTYMXDLY={MNTYMXDLY} IO_LEVEL={IO_LEVEL} 
.ends
*
.model D_40 ugate (
+	tplhty=13ns	tplhmx=22ns
+	tphlty=8ns	tphlmx=15ns
+	)
*$
*-------------------------------------------------------------------------
* 7442A  DECODER BCD-DECIMAL 4-10 LINE
*
* TTL LOGIC STANDARD TTL, S, LS DATA BOOK, APR 1988, TI
* JLS   7-30-92   REMODELED USING LOGICEXP, PINDLY, AND CONSTRAINT DEVICES
*
.SUBCKT 7442A   A_I B_I C_I D_I
+ Y0_O Y1_O Y2_O Y3_O Y4_O Y5_O Y6_O Y7_O Y8_O Y9_O
+ OPTIONAL: DPWR=$G_DPWR DGND=$G_DGND
+ PARAMS: MNTYMXDLY=0 IO_LEVEL=0
*
U42ALOG LOGICEXP (4,14) DPWR DGND
+ A_I B_I C_I D_I
+ A   B   C   D
+ Y0 Y1 Y2 Y3 Y4 Y5 Y6 Y7 Y8 Y9
+ D0_GATE IO_STD
+ IO_LEVEL={IO_LEVEL}
+
+ LOGIC:
+   A    = { A_I }
+   B    = { B_I }
+   C    = { C_I }
+   D    = { D_I }
+   ABAR = { ~A }
+   BBAR = { ~B }
+   CBAR = { ~C }
+   DBAR = { ~D }
+   Y0   = { ~(DBAR & CBAR & BBAR & ABAR ) }
+   Y1   = { ~(DBAR & CBAR & BBAR & A    ) }
+   Y2   = { ~(DBAR & CBAR & B    & ABAR ) }
+   Y3   = { ~(DBAR & CBAR & B    & A    ) }
+   Y4   = { ~(DBAR & C    & BBAR & ABAR ) }
+   Y5   = { ~(DBAR & C    & BBAR & A    ) }
+   Y6   = { ~(DBAR & C    & B    & ABAR ) }
+   Y7   = { ~(DBAR & C    & B    & A    ) }
+   Y8   = { ~(D    & CBAR & BBAR & ABAR ) }
+   Y9   = { ~(D    & CBAR & BBAR & A    ) }
*
U42ADLY PINDLY (10,0,4) DPWR DGND
+ Y0 Y1 Y2 Y3 Y4 Y5 Y6 Y7 Y8 Y9
+ A B C D
+ Y0_O Y1_O Y2_O Y3_O Y4_O Y5_O Y6_O Y7_O Y8_O Y9_O
+ IO_STD
+ MNTYMXDLY={MNTYMXDLY} IO_LEVEL={IO_LEVEL}
+
+ BOOLEAN:
+   ADDRA = { CHANGED(A,0) }
+   ADDRB = { CHANGED(B,0) }
+   ADDRC = { CHANGED(C,0) }
+   ADDRD = { CHANGED(D,0) }
+
+ PINDLY:
+   Y0_O = {
+     CASE (
+               TRN_HL, DELAY(-1,14NS,25NS),
+               TRN_LH, DELAY(-1,10NS,25NS),
+       DELAY(-1,14NS,25NS)
+       )
+     }
+   Y1_O = {
+     CASE (
+       ADDRA         , DELAY(-1,17NS,30NS),
+               TRN_HL, DELAY(-1,14NS,25NS),
+               TRN_LH, DELAY(-1,10NS,25NS),
+       DELAY(-1,17NS,30NS)
+       )
+     }
+   Y2_O = {
+     CASE (
+       ADDRB         , DELAY(-1,17NS,30NS),
+               TRN_HL, DELAY(-1,14NS,25NS),
+               TRN_LH, DELAY(-1,10NS,25NS),
+       DELAY(-1,17NS,30NS)
+       )
+     }
+   Y3_O = {
+     CASE (
+       ADDRA | ADDRB  , DELAY(-1,17NS,30NS),
+                TRN_HL, DELAY(-1,14NS,25NS),
+                TRN_LH, DELAY(-1,10NS,25NS),
+       DELAY(-1,17NS,30NS)
+       )
+     }
+   Y4_O = {
+     CASE (
+       ADDRC         , DELAY(-1,17NS,30NS),
+               TRN_HL, DELAY(-1,14NS,25NS),
+               TRN_LH, DELAY(-1,10NS,25NS),
+       DELAY(-1,17NS,30NS)
+       )
+     }
+   Y5_O = {
+     CASE (
+       ADDRA | ADDRC  , DELAY(-1,17NS,30NS),
+                TRN_HL, DELAY(-1,14NS,25NS),
+                TRN_LH, DELAY(-1,10NS,25NS),
+       DELAY(-1,17NS,30NS)
+       )
+     }
+   Y6_O = {
+     CASE (
+       ADDRB | ADDRC  , DELAY(-1,17NS,30NS),
+                TRN_HL, DELAY(-1,14NS,25NS),
+                TRN_LH, DELAY(-1,10NS,25NS),
+       DELAY(-1,17NS,30NS)
+       )
+     }
+   Y7_O = {
+     CASE (
+       ADDRA | ADDRB | ADDRC, DELAY(-1,17NS,30NS),
+               TRN_HL, DELAY(-1,14NS,25NS),
+               TRN_LH, DELAY(-1,10NS,25NS),
+       DELAY(-1,17NS,30NS)
+       )
+     }
+   Y8_O = {
+     CASE (
+       ADDRD         , DELAY(-1,17NS,30NS),
+               TRN_HL, DELAY(-1,14NS,25NS),
+               TRN_LH, DELAY(-1,10NS,25NS),
+       DELAY(-1,17NS,30NS)
+       )
+     }
+   Y9_O = {
+     CASE (
+       ADDRA | ADDRD, DELAY(-1,17NS,30NS),
+                TRN_HL, DELAY(-1,14NS,25NS),
+                TRN_LH, DELAY(-1,10NS,25NS),
+       DELAY(-1,17NS,30NS)
+       )
+     }
*
.ENDS
*
*$
*------------------------------------------------------------------------
* 7443A  DECODER EXCESS-3-DECIMAL 4-10 LINE
*
* THE TTL DATA BOOK, VOLUME 2, STANDARD, S, LS, TTL; TI, 1985
* JLS   7-30-92   REMODELED USING LOGICEXP, PINDLY, AND CONSTRAINT DEVICES
*
.SUBCKT 7443A   A_I B_I C_I D_I
+ Y0_O Y1_O Y2_O Y3_O Y4_O Y5_O Y6_O Y7_O Y8_O Y9_O
+ OPTIONAL: DPWR=$G_DPWR DGND=$G_DGND
+ PARAMS: MNTYMXDLY=0 IO_LEVEL=0
*
U43ALOG LOGICEXP (4,14) DPWR DGND
+ A_I B_I C_I D_I
+ A   B   C   D
+ Y0 Y1 Y2 Y3 Y4 Y5 Y6 Y7 Y8 Y9
+ D0_GATE IO_STD
+ IO_LEVEL={IO_LEVEL}
+
+ LOGIC:
+   A    = { A_I }
+   B    = { B_I }
+   C    = { C_I }
+   D    = { D_I }
+   ABAR = { ~A }
+   BBAR = { ~B }
+   CBAR = { ~C }
+   DBAR = { ~D }
+   Y0   = { ~(DBAR & CBAR & B    & A    ) }
+   Y1   = { ~(DBAR & C    & BBAR & ABAR ) }
+   Y2   = { ~(DBAR & C    & BBAR & A    ) }
+   Y3   = { ~(DBAR & C    & B    & ABAR ) }
+   Y4   = { ~(DBAR & C    & B    & A    ) }
+   Y5   = { ~(D    & CBAR & BBAR & ABAR ) }
+   Y6   = { ~(D    & CBAR & BBAR & A    ) }
+   Y7   = { ~(D    & CBAR & B    & ABAR ) }
+   Y8   = { ~(D    & CBAR & B    & A    ) }
+   Y9   = { ~(D    & C    & BBAR & ABAR ) }
*
U43ADLY PINDLY (10,0,4) DPWR DGND
+ Y0 Y1 Y2 Y3 Y4 Y5 Y6 Y7 Y8 Y9
+ A B C D
+ Y0_O Y1_O Y2_O Y3_O Y4_O Y5_O Y6_O Y7_O Y8_O Y9_O
+ IO_STD
+ MNTYMXDLY={MNTYMXDLY} IO_LEVEL={IO_LEVEL}
+
+ BOOLEAN:
+   ADDRA = { CHANGED(A,0) }
+   ADDRB = { CHANGED(B,0) }
+   ADDRC = { CHANGED(C,0) }
+   ADDRD = { CHANGED(D,0) }
+
+ PINDLY:
+   Y0_O = {
+     CASE (
+       ADDRA | ADDRB , DELAY(-1,17NS,30NS),
+               TRN_HL, DELAY(-1,14NS,25NS),
+               TRN_LH, DELAY(-1,10NS,25NS),
+       DELAY(-1,17NS,30NS)
+       )
+     }
+   Y1_O = {
+     CASE (
+       ADDRC         , DELAY(-1,17NS,30NS),
+               TRN_HL, DELAY(-1,14NS,25NS),
+               TRN_LH, DELAY(-1,10NS,25NS),
+       DELAY(-1,17NS,30NS)
+       )
+     }
+   Y2_O = {
+     CASE (
+       ADDRA | ADDRC , DELAY(-1,17NS,30NS),
+               TRN_HL, DELAY(-1,14NS,25NS),
+               TRN_LH, DELAY(-1,10NS,25NS),
+       DELAY(-1,17NS,30NS)
+       )
+     }
+   Y3_O = {
+     CASE (
+       ADDRB | ADDRC , DELAY(-1,17NS,30NS),
+               TRN_HL, DELAY(-1,14NS,25NS),
+               TRN_LH, DELAY(-1,10NS,25NS),
+       DELAY(-1,17NS,30NS)
+       )
+     }
+   Y4_O = {
+     CASE (
+       ADDRA | ADDRB | ADDRC, DELAY(-1,17NS,30NS),
+               TRN_HL, DELAY(-1,14NS,25NS),
+               TRN_LH, DELAY(-1,10NS,25NS),
+       DELAY(-1,17NS,30NS)
+       )
+     }
+   Y5_O = {
+     CASE (
+       ADDRD         , DELAY(-1,17NS,30NS),
+               TRN_HL, DELAY(-1,14NS,25NS),
+               TRN_LH, DELAY(-1,10NS,25NS),
+       DELAY(-1,17NS,30NS)
+       )
+     }
+   Y6_O = {
+     CASE (
+       ADDRA | ADDRD , DELAY(-1,17NS,30NS),
+               TRN_HL, DELAY(-1,14NS,25NS),
+               TRN_LH, DELAY(-1,10NS,25NS),
+       DELAY(-1,17NS,30NS)
+       )
+     }
+   Y7_O = {
+     CASE (
+       ADDRB | ADDRD , DELAY(-1,17NS,30NS),
+               TRN_HL, DELAY(-1,14NS,25NS),
+               TRN_LH, DELAY(-1,10NS,25NS),
+       DELAY(-1,17NS,30NS)
+       )
+     }
+   Y8_O = {
+     CASE (
+       ADDRA | ADDRB | ADDRD, DELAY(-1,17NS,30NS),
+               TRN_HL, DELAY(-1,14NS,25NS),
+               TRN_LH, DELAY(-1,10NS,25NS),
+       DELAY(-1,17NS,30NS)
+       )
+     }
+   Y9_O = {
+     CASE (
+       ADDRC | ADDRD , DELAY(-1,17NS,30NS),
+               TRN_HL, DELAY(-1,14NS,25NS),
+               TRN_LH, DELAY(-1,10NS,25NS),
+       DELAY(-1,17NS,30NS)
+       )
+     }
*
.ENDS
*
*$
*------------------------------------------------------------------------
* 7444A  DECODER GRAY-DECIMAL 4-10 LINE
*
* THE TTL DATA BOOK, VOLUME 2, STANDARD, S, LS, TTL; 1985, TI
* JLS   7-30-92   REMODELED USING LOGICEXP, PINDLY, AND CONSTRAINT DEVICES
*
.SUBCKT 7444A   A_I B_I C_I D_I
+ Y0_O Y1_O Y2_O Y3_O Y4_O Y5_O Y6_O Y7_O Y8_O Y9_O
+ OPTIONAL: DPWR=$G_DPWR DGND=$G_DGND
+ PARAMS: MNTYMXDLY=0 IO_LEVEL=0
*
U44ALOG LOGICEXP (4,14) DPWR DGND
+ A_I B_I C_I D_I
+ A   B   C   D
+ Y0 Y1 Y2 Y3 Y4 Y5 Y6 Y7 Y8 Y9
+ D0_GATE IO_STD
+ IO_LEVEL={IO_LEVEL}
+
+ LOGIC:
+   A    = { A_I }
+   B    = { B_I }
+   C    = { C_I }
+   D    = { D_I }
+   ABAR = { ~A }
+   BBAR = { ~B }
+   CBAR = { ~C }
+   DBAR = { ~D }
+   Y0   = { ~(DBAR & CBAR & B    & ABAR ) }
+   Y1   = { ~(DBAR & C    & B    & ABAR ) }
+   Y2   = { ~(DBAR & C    & B    & A    ) }
+   Y3   = { ~(DBAR & C    & BBAR & A    ) }
+   Y4   = { ~(DBAR & C    & BBAR & ABAR ) }
+   Y5   = { ~(D    & C    & BBAR & ABAR ) }
+   Y6   = { ~(D    & C    & BBAR & A    ) }
+   Y7   = { ~(D    & C    & B    & A    ) }
+   Y8   = { ~(D    & C    & B    & ABAR ) }
+   Y9   = { ~(D    & CBAR & B    & ABAR ) }
*
U44ADLY PINDLY (10,0,4) DPWR DGND
+ Y0 Y1 Y2 Y3 Y4 Y5 Y6 Y7 Y8 Y9
+ A B C D
+ Y0_O Y1_O Y2_O Y3_O Y4_O Y5_O Y6_O Y7_O Y8_O Y9_O
+ IO_STD
+ MNTYMXDLY={MNTYMXDLY} IO_LEVEL={IO_LEVEL}
+
+ BOOLEAN:
+   ADDRA = { CHANGED(A,0) }
+   ADDRB = { CHANGED(B,0) }
+   ADDRC = { CHANGED(C,0) }
+   ADDRD = { CHANGED(D,0) }
+
+ PINDLY:
+   Y0_O = {
+     CASE (
+       ADDRB         , DELAY(-1,17NS,30NS),
+               TRN_HL, DELAY(-1,14NS,25NS),
+               TRN_LH, DELAY(-1,10NS,25NS),
+       DELAY(-1,17NS,30NS)
+       )
+     }
+   Y1_O = {
+     CASE (
+       ADDRB | ADDRC , DELAY(-1,17NS,30NS),
+               TRN_HL, DELAY(-1,14NS,25NS),
+               TRN_LH, DELAY(-1,10NS,25NS),
+       DELAY(-1,17NS,30NS)
+       )
+     }
+   Y2_O = {
+     CASE (
+       ADDRA | ADDRB | ADDRC, DELAY(-1,17NS,30NS),
+               TRN_HL, DELAY(-1,14NS,25NS),
+               TRN_LH, DELAY(-1,10NS,25NS),
+       DELAY(-1,17NS,30NS)
+       )
+     }
+   Y3_O = {
+     CASE (
+       ADDRA | ADDRC , DELAY(-1,17NS,30NS),
+               TRN_HL, DELAY(-1,14NS,25NS),
+               TRN_LH, DELAY(-1,10NS,25NS),
+       DELAY(-1,17NS,30NS)
+       )
+     }
+   Y4_O = {
+     CASE (
+       ADDRC         , DELAY(-1,17NS,30NS),
+               TRN_HL, DELAY(-1,14NS,25NS),
+               TRN_LH, DELAY(-1,10NS,25NS),
+       DELAY(-1,17NS,30NS)
+       )
+     }
+   Y5_O = {
+     CASE (
+       ADDRC | ADDRD , DELAY(-1,17NS,30NS),
+               TRN_HL, DELAY(-1,14NS,25NS),
+               TRN_LH, DELAY(-1,10NS,25NS),
+       DELAY(-1,17NS,30NS)
+       )
+     }
+   Y6_O = {
+     CASE (
+       ADDRA | ADDRC | ADDRD, DELAY(-1,17NS,30NS),
+               TRN_HL, DELAY(-1,14NS,25NS),
+               TRN_LH, DELAY(-1,10NS,25NS),
+       DELAY(-1,17NS,30NS)
+       )
+     }
+   Y7_O = {
+     CASE (
+       ADDRA | ADDRB | ADDRC | ADDRD, DELAY(-1,17NS,30NS),
+               TRN_HL, DELAY(-1,14NS,25NS),
+               TRN_LH, DELAY(-1,10NS,25NS),
+       DELAY(-1,17NS,30NS)
+       )
+     }
+   Y8_O = {
+     CASE (
+       ADDRB | ADDRC | ADDRD, DELAY(-1,17NS,30NS),
+               TRN_HL, DELAY(-1,14NS,25NS),
+               TRN_LH, DELAY(-1,10NS,25NS),
+       DELAY(-1,17NS,30NS)
+       )
+     }
+   Y9_O = {
+     CASE (
+       ADDRB | ADDRD , DELAY(-1,17NS,30NS),
+               TRN_HL, DELAY(-1,14NS,25NS),
+               TRN_LH, DELAY(-1,10NS,25NS),
+       DELAY(-1,17NS,30NS)
+       )
+     }
*
.ENDS
*
*$
*-------------------------------------------------------------------------
* 7445  DECODER/DRIVER BCD-DECIMAL WITH OPEN COLLECTOR OUTPUTS
*
* TTL LOGIC STANDARD TTL, S, LS DATA BOOK, APR 1988, TI
* JLS   8-25-92   REMODELED USING LOGICEXP, PINDLY, AND CONSTRAINT DEVICES
*
.SUBCKT 7445   A_I B_I C_I D_I
+ Y0_O Y1_O Y2_O Y3_O Y4_O Y5_O Y6_O Y7_O Y8_O Y9_O
+ OPTIONAL: DPWR=$G_DPWR DGND=$G_DGND
+ PARAMS: MNTYMXDLY=0 IO_LEVEL=0
*
X1   A_I B_I C_I D_I
+ Y0_O Y1_O Y2_O Y3_O Y4_O Y5_O Y6_O Y7_O Y8_O Y9_O   DPWR DGND   74145
+ PARAMS: MNTYMXDLY={MNTYMXDLY} IO_LEVEL={IO_LEVEL}
*
.ENDS
*
*$
*-------------------------------------------------------------------------
* 7446A  DECODER/DRIVER BCD-7 SEGMENT WITH OPEN COLLECTOR OUTPUTS
*
* TTL LOGIC STANDARD TTL, S, LS DATA BOOK, APR 1988, TI
* JLS   8-26-92   REMODELED USING LOGICEXP, PINDLY, AND CONSTRAINT DEVICES
*    
.SUBCKT 7446A   INA_I INB_I INC_I IND_I RBIBAR_I LTBAR_I BIBAR/RBOBAR_B
+ OUTA_O OUTB_O OUTC_O OUTD_O OUTE_O OUTF_O OUTG_O
+ OPTIONAL: DPWR=$G_DPWR DGND=$G_DGND
+ PARAMS: MNTYMXDLY=0 IO_LEVEL=0
*
X1   INA_I INB_I INC_I IND_I RBIBAR_I LTBAR_I BIBAR/RBOBAR_B
+ OUTA_O OUTB_O OUTC_O OUTD_O OUTE_O OUTF_O OUTG_O   DPWR DGND   7447A
+ PARAMS: MNTYMXDLY={MNTYMXDLY} IO_LEVEL={IO_LEVEL}
*
.ENDS
*
*$
*-------------------------------------------------------------------------
* 7447A  DECODER/DRIVER BCD-7 SEGMENT WITH OPEN COLLECTOR OUTPUTS
*
* TTL LOGIC STANDARD TTL, S, LS DATA BOOK, APR 1988, TI
* JLS   8-26-92   REMODELED USING LOGICEXP, PINDLY, AND CONSTRAINT DEVICES
*    
.SUBCKT 7447A   INA_I INB_I INC_I IND_I RBIBAR_I LTBAR_I BIBAR/RBOBAR_B
+ OUTA_O OUTB_O OUTC_O OUTD_O OUTE_O OUTF_O OUTG_O
+ OPTIONAL: DPWR=$G_DPWR DGND=$G_DGND
+ PARAMS: MNTYMXDLY=0 IO_LEVEL=0
*
U1 OR(6) DPWR DGND
+ LT RBIBAR INA INB INC IND
+ BIBAR/RBOBAR_B
+ D0_GATE IO_STD 
+ IO_LEVEL={IO_LEVEL}
*
U47ALOG LOGICEXP (7,13) DPWR DGND
+ INA_I INB_I INC_I IND_I RBIBAR_I LTBAR_I BIBAR/RBOBAR_B
+ INA   INB   INC   IND   RBIBAR   LT
+ OUTA OUTB OUTC OUTD OUTE OUTF OUTG
+ D0_GATE IO_STD
+ IO_LEVEL={IO_LEVEL}
+
+ LOGIC:
+   INA    = { INA_I }
+   INB    = { INB_I }
+   INC    = { INC_I }
+   IND    = { IND_I }
+   RBIBAR = { RBIBAR_I }
+   LTBAR  = { LTBAR_I }
+   BIBAR/RBOBAR  = { BIBAR/RBOBAR_B }
+
+   LT     = { ~LTBAR }
+   ALT    = { ~(INA & LTBAR) }
+   BLT    = { ~(INB & LTBAR) }
+   CLT    = { ~(INC & LTBAR) }
+   DLT    = { ~IND }
+   ABI    = { ~(ALT & BIBAR/RBOBAR) }
+   BBI    = { ~(BLT & BIBAR/RBOBAR) }
+   CBI    = { ~(CLT & BIBAR/RBOBAR) }
+   DBI    = { ~(DLT & BIBAR/RBOBAR) }
+
+   OUTA   = { (BBI & DBI) | (ALT & CBI) | (ABI & BLT & CLT & DLT) }
+   OUTB   = { (BBI & DBI) | (ABI & BLT & CBI) | (ALT & BBI & CBI) }
+   OUTC   = { (CBI & DBI) | (ALT & BBI & CLT) }
+   OUTD   = { (ABI & BLT & CLT) | (ALT & BLT & CBI) | (ABI & BBI & CBI) }
+   OUTE   = {  ABI | (BLT & CBI) }
+   OUTF   = { (ABI & BBI) | (BBI & CLT) | (ABI & CLT & DLT) }
+   OUTG   = { (ABI & BBI & CBI) | (BLT & CLT & DLT & LTBAR) }
*
U47ADLY_OC PINDLY (7,0,0) DPWR DGND
+ OUTA OUTB OUTC OUTD OUTE OUTF OUTG
+
+ OUTA_O OUTB_O OUTC_O OUTD_O OUTE_O OUTF_O OUTG_O
+ IO_STD_OC