* Library of 74ACT Family Digital Models
*
*  Copyright OrCAD, Inc. 1998 All Rights Reserved.
*
*
* $Revision:   1.3  $
* $Author:   RPEREZ  $
* $Date:   16 Apr 1998 14:11:42  $
*
*
*$
*---------
* 74ACT00  Quadruple 2-input Positive-Nand Gates
*
* The FACT Data Book, 1987, Fairchild
* cv   06/21/90		Created from LS
*
.subckt 74ACT00  A B Y
+	optional: DPWR=$G_DPWR DGND=$G_DGND
+	params: MNTYMXDLY=0 IO_LEVEL=0
U1 nand(2) DPWR DGND
+	A B   Y 
+	D_ACT00 IO_ACT MNTYMXDLY={MNTYMXDLY} IO_LEVEL={IO_LEVEL} 
.ends
*
.model D_ACT00 ugate (
+	tplhmn=1ns	tplhty=5.5ns
+	tplhmx=9.5ns	tphlmn=1ns
+	tphlty=4ns	tphlmx=8ns
+	)
*$
*---------
* 74ACT02  Quadruple 2-input Positive-Nor Gates
*
* The Advanced CMOS Logic Data Book, 1987, TI
* cv	06/21/90	Created from LS
*
.subckt 74ACT02  A B Y
+	optional: DPWR=$G_DPWR DGND=$G_DGND
+	params: MNTYMXDLY=0 IO_LEVEL=0
U1 nor(2) DPWR DGND
+	A B   Y 
+	D_ACT02 IO_ACT MNTYMXDLY={MNTYMXDLY} IO_LEVEL={IO_LEVEL} 
.ends
*
.model D_ACT02 ugate (
+	tplhmn=1.5ns	tplhty=6.1ns
+	tplhmx=10.6ns	tphlmn=1.5ns
+	tphlty=5.3ns	tphlmx=8.7ns
+	)
*$
*---------
* 74ACT04  Hex Inverters
*
* The ACL Data Manual, Signetics
* cv	07/13/90	Created from LS
*
.subckt 74ACT04  A Y
+	optional: DPWR=$G_DPWR DGND=$G_DGND
+	params: MNTYMXDLY=0 IO_LEVEL=0
U1 inv DPWR DGND
+	A   Y 
+	D_ACT04 IO_ACT MNTYMXDLY={MNTYMXDLY} IO_LEVEL={IO_LEVEL} 
.ends
*
.model D_ACT04 ugate (
+	tplhmn=1.5ns	tplhmx=9.7ns
+	tphlmn=1.5ns	tphlmx=9.6ns
+	)
*$
*---------
* 74ACT05  Hex Inverters with Open-Collector Outputs      
*
* The Advanced CMOS Logic ICs Data Book, RCA
* cv	07/13/90	Created from LS
*
.subckt 74ACT05  A Y
+	optional: DPWR=$G_DPWR DGND=$G_DGND
+	params: MNTYMXDLY=0 IO_LEVEL=0
U1 inv DPWR DGND
+	A   Y 
+	D_ACT05 IO_ACT_OC MNTYMXDLY={MNTYMXDLY} IO_LEVEL={IO_LEVEL} 
.ends
*
.model D_ACT05 ugate (
+	tphlmn=2.4ns	tphlmx=8.5ns
+	tplhmn=2.8ns	tplhmx=9.8ns
+	)
*$
*---------
* 74ACT08  Quadruple 2-input Positive-And Gates
*
* The Advanced CMOS Logic Data Book, 1987, TI
* cv 	06/21/90	Created from LS
*
.subckt 74ACT08  A B Y
+	optional: DPWR=$G_DPWR DGND=$G_DGND
+	params: MNTYMXDLY=0 IO_LEVEL=0
U1 and(2) DPWR DGND
+	A B   Y 
+	D_ACT08 IO_ACT MNTYMXDLY={MNTYMXDLY} IO_LEVEL={IO_LEVEL} 
.ends
*
.model D_ACT08 ugate (
+	tplhmn=1.5ns	tplhty=5.8ns
+	tplhmx=9ns	tphlmn=1.5ns
+	tphlty=5.2ns	tphlmx=8.2ns
+	)
*$
*---------
* 74ACT10  Triple 3-input Positive-Nand Gates
*
* The Advanced CMOS Logic Data Book, 1987, TI
* cv	06/21/90 	Created from LS
*
.subckt 74ACT10  A B C Y
+	optional: DPWR=$G_DPWR DGND=$G_DGND
+	params: MNTYMXDLY=0 IO_LEVEL=0
U1 nand(3) DPWR DGND
+	A B C   Y 
+	D_ACT10 IO_ACT MNTYMXDLY={MNTYMXDLY} IO_LEVEL={IO_LEVEL} 
.ends
*
.model D_ACT10 ugate (
+	tplhmn=1.5ns	tplhty=5.8ns
+	tplhmx=8.9ns	tphlmn=1.5ns
+	tphlty=5.7ns	tphlmx=8.2ns
+	)
*$
*---------
* 74ACT11  Triple 3-input Positive-And Gates
*
* The Advanced CMOS Logic Data Book, 1987, TI 
* cv	06/21/90	Created from LS
*
.subckt 74ACT11  A B C Y
+	optional: DPWR=$G_DPWR DGND=$G_DGND
+	params: MNTYMXDLY=0 IO_LEVEL=0
U1 and(3) DPWR DGND
+	A B C   Y 
+	D_ACT11 IO_ACT MNTYMXDLY={MNTYMXDLY} IO_LEVEL={IO_LEVEL} 
.ends
*
.model D_ACT11 ugate (
+	tplhty=4.7ns	tphlty=6ns
+	)
*$
*---------
* 74ACT14  Hex Schmitt-Trigger Inverters
*
* The Advanced CMOS Logic ICs Data Book, RCA
* cv	07/13/90	Created from LS	
*
.subckt 74ACT14  A Y
+	optional: DPWR=$G_DPWR DGND=$G_DGND
+	params: MNTYMXDLY=0 IO_LEVEL=0
* Note: These devices are modeled as simple inverters
*       Hysteresis is modeled in the AtoD interface
*
U1 inv DPWR DGND
+	A   Y 
+	D_ACT14 IO_ACT_ST MNTYMXDLY={MNTYMXDLY} IO_LEVEL={IO_LEVEL} 
.ends
*
.model D_ACT14 ugate (
+	tplhmn=3.7ns	tplhmx=13.2ns
+	tphlmn=2.4ns	tphlmx=8.6ns
+	)
*$
*---------
* 74ACT20  Dual 4-input Positive-Nand Gates
*
* The Advanced CMOS Logic Data Book, 1987, TI
* cv 	06/21/90	Created from LS
*
.subckt 74ACT20  A B C D Y
+	optional: DPWR=$G_DPWR DGND=$G_DGND
+	params: MNTYMXDLY=0 IO_LEVEL=0
U1 nand(4) DPWR DGND
+	A B C D   Y 
+	D_ACT20 IO_ACT MNTYMXDLY={MNTYMXDLY} IO_LEVEL={IO_LEVEL} 
.ends
*
.model D_ACT20 ugate (
+	tplhmn=1.5ns	tplhty=5.6ns
+	tplhmx=9.1ns	tphlmn=1.5ns
+	tphlty=6.1ns	tphlmx=9.2ns
+	)
*$
*---------
* 74ACT21  Dual 4-input Positive-And Gates
*
* The Advanced CMOS Logic Data Book, 1987, TI
* cv	06/21/90	Created from LS
*
.subckt 74ACT21  A B C D Y
+	optional: DPWR=$G_DPWR DGND=$G_DGND
+	params: MNTYMXDLY=0 IO_LEVEL=0
U1 and(4) DPWR DGND
+	A B C D   Y 
+	D_ACT21 IO_ACT MNTYMXDLY={MNTYMXDLY} IO_LEVEL={IO_LEVEL} 
.ends
*
.model D_ACT21 ugate (
+	tplhty=6.2ns	tphlty=5ns
+	)
*$
*---------
* 74ACT27  Triple 3-input Positive-Nor Gates
*
* The Advanced CMOS Logic Data Book, 1987, TI
* cv	06/21/90	Created from LS
*
.subckt 74ACT27  A B C Y
+	optional: DPWR=$G_DPWR DGND=$G_DGND
+	params: MNTYMXDLY=0 IO_LEVEL=0
U1 nor(3) DPWR DGND
+	A B C   Y 
+	D_ACT27 IO_ACT MNTYMXDLY={MNTYMXDLY} IO_LEVEL={IO_LEVEL} 
.ends
*
.model D_ACT27 ugate (
+	tplhmn=1.5ns	tplhty=5ns
+	tplhmx=10.1ns	tphlmn=1.5ns
+	tphlty=6ns	tphlmx=9.4ns
+	)
*$
*---------
* 74ACT30  8-input Positive-Nand Gates
*
* The Advanced CMOS Logic Data Book, 1987, TI
* cv	06/21/90	Created from LS
*
.subckt 74ACT30  A B C D E F G H Y
+	optional: DPWR=$G_DPWR DGND=$G_DGND
+	params: MNTYMXDLY=0 IO_LEVEL=0
U1 nand(8) DPWR DGND
+	A B C D E F G H   Y 
+	D_ACT30 IO_ACT MNTYMXDLY={MNTYMXDLY} IO_LEVEL={IO_LEVEL} 
.ends
*
.model D_ACT30 ugate (
+	tplhmn=1.5ns	tplhty=5.4ns
+	tplhmx=8.5ns	tphlmn=1.5ns
+	tphlty=5.9ns	tphlmx=8.7ns
+	)
*$
*---------
* 74ACT32  Quadruple 2-input Positive-Or Gates
*
* The Advanced CMOS Logic Data Book, 1987, TI
* cv 	06/21/90	Created from LS
*
.subckt 74ACT32  A B Y
+	optional: DPWR=$G_DPWR DGND=$G_DGND
+	params: MNTYMXDLY=0 IO_LEVEL=0
U1 or(2) DPWR DGND
+	A B   Y 
+	D_ACT32 IO_ACT MNTYMXDLY={MNTYMXDLY} IO_LEVEL={IO_LEVEL} 
.ends
*
.model D_ACT32 ugate (
+	tplhty=6ns	tphlty=4.5ns
+	)
*$
*---------
* 74ACT74  Dual D-Type Positive-Edge-Triggered Flip-Flops w/ Preset & Clear
*
* The FACT Data Book, 1987, Fairchild
* cv	06/22/90	Created from LS
*
.subckt 74ACT74  CD1BAR D1 CP1 SD1BAR Q1 Q1BAR
+	optional: DPWR=$G_DPWR DGND=$G_DGND
+	params: MNTYMXDLY=0 IO_LEVEL=0
UFF11 dff(1) DPWR DGND
+	SD1BAR CD1BAR CP1   D1   Q1 Q1BAR 
+	D_ACT74 IO_ACT MNTYMXDLY={MNTYMXDLY} IO_LEVEL={IO_LEVEL} 
.ends
*
.model D_ACT74 ueff (
+	twpclmn=6ns	twclklmn=6ns
+	twclkhmn=6ns	tsudclkmn=3.5ns
+	tsupcclkhmn=0ns	thdclkmn=1ns
+	tppcqlhmn=1ns	tppcqlhty=5.5ns
+	tppcqlhmx=10.5ns	tppcqhlmn=1ns
+	tppcqhlty=6ns	tppcqhlmx=11.5ns
+	tpclkqlhmn=1ns	tpclkqlhty=7.5ns
+	tpclkqlhmx=13ns	tpclkqhlmn=1ns
+	tpclkqhlty=6ns	tpclkqhlmx=11.5ns
+	)
*$
*---------
* 74ACT86  Quadruple 2-input Exclusive-Or Gates
*
* The Advanced CMOS Logic ICs Data Book, RCA
* CV	07/13/90	Created from S
*
.subckt 74ACT86  A B Y
+	optional: DPWR=$G_DPWR DGND=$G_DGND
+	params: MNTYMXDLY=0 IO_LEVEL=0
U1 xor DPWR DGND
+	A B   Y 
+	D_ACT86 IO_ACT MNTYMXDLY={MNTYMXDLY} IO_LEVEL={IO_LEVEL} 
.ends
*
.model D_ACT86 ugate (
+	tplhmn=3.8ns	tplhmx=13.3ns
+	tphlmn=3.8ns	tphlmx=13.3ns
+	)
*$
*---------
* 74ACT107  Dual J-K Flip-Flops with Clear
*
* HITACHI AMERICA, 1988
* cv	06/29/90	Update interface and model names
*
.subckt 74ACT107  CP CDBAR J K Q QBAR
+	optional: DPWR=$G_DPWR DGND=$G_DGND
+	params: MNTYMXDLY=0 IO_LEVEL=0
U1 jkff(1) DPWR DGND
+	$D_HI CDBAR CP   J K   Q QBAR 
+	D_ACT107 IO_ACT MNTYMXDLY={MNTYMXDLY} IO_LEVEL={IO_LEVEL} 
.ends
*
.model D_ACT107 ueff (
+	tppcqlhmn=1ns	tppcqlhty=8.5ns
+	tppcqlhmx=12ns	tppcqhlmn=1ns
+	tppcqhlty=8.5ns	tppcqhlmx=12ns
+	tpclkqlhmn=1ns	tpclkqlhty=9.5ns
+	tpclkqlhmx=13.5ns	tpclkqhlmn=1ns
+	tpclkqhlty=10.5ns	tpclkqhlmx=14ns
+	twclkhmx=8ns	twclkhty=8ns
+	twclklmx=8ns	twclklty=8ns
+	twpclmx=8ns	twpclty=8ns
+	tsudclkmx=8ns	tsudclkty=8ns
+	thdclkmx=1.5ns	thdclkty=1.5ns
+	tsupcclkhmx=3ns	tsupcclkhty=3ns
+	)
*$
*---------
* 74ACT109  Dual J-KBar Positive-Edge-Triggered Flip-Flops w/ Preset & Clear    
*
* The FACT Data Book, 1987, Fairchild
* cv	06/22/90	Created from LS
*
.subckt 74ACT109  CP SDBAR CDBAR J KBAR Q QBAR
+	optional: DPWR=$G_DPWR DGND=$G_DGND
+	params: MNTYMXDLY=0 IO_LEVEL=0
U11 jkff(1) DPWR DGND
+	SDBAR CDBAR CPBAR   J K   Q QBAR 
+	D_ACT109 IO_ACT MNTYMXDLY={MNTYMXDLY} 
U22 inva(2) DPWR DGND
+	KBAR CP   K CPBAR 
+	D0_GATE IO_ACT IO_LEVEL={IO_LEVEL} 
.ends
*
.model D_ACT109 ueff (
+	tppcqlhty=5.5ns	tppcqlhmx=10.5ns
+	tppcqlhmn=1ns	tppcqhlty=6ns
+	tppcqhlmx=11.5ns	tppcqhlmn=1ns
+	tpclkqlhty=7ns	tpclkqlhmx=13ns
+	tpclkqlhmn=1ns	tpclkqhlty=6ns
+	tpclkqhlmx=11.5ns	tpclkqhlmn=1ns
+	twclkhmx=6ns	twclklmx=6ns
+	twclkhty=6ns	twclklty=6ns
+	twpclmx=6ns	twpclty=6ns
+	tsudclkmx=2.5ns	tsudclkty=2.5ns
+	tsupcclkhmx=0ns	tsupcclkhty=0ns
+	thdclkmx=2ns	thdclkty=2ns
+	)
*$
*---------
* 74ACT112  Dual J-K Negative-Edge-Triggered Flip-Flops with Set & Resset
*
* The Advanced CMOS Logic ICs Data Book, RCA
* CV	07/13/90	Created from S
*
.subckt 74ACT112  CP SBAR RBAR J K Q QBAR
+	optional: DPWR=$G_DPWR DGND=$G_DGND
+	params: MNTYMXDLY=0 IO_LEVEL=0
U1 jkff(1) DPWR DGND
+	SBAR RBAR CP   J K   Q QBAR 
+	D_ACT112 IO_ACT MNTYMXDLY={MNTYMXDLY} IO_LEVEL={IO_LEVEL} 
.ends
*
.model D_ACT112 ueff (
+	tppcqlhmn=3.2ns	tppcqlhmx=11.1ns
+	tppcqhlmn=3.2ns	tppcqhlmx=11.1ns
+	tpclkqlhmn=2.7ns	tpclkqlhmx=9.4ns
+	tpclkqhlmn=2.7ns	tpclkqhlmx=9.4ns
+	twclkhmn=4.4ns	twclklmn=4.4ns
+	twpclmn=4.8ns	tsudclkmn=3.5ns
+	tsupcclkhmn=2.2ns	thdclkmn=1ns
+	)
*$
*---------
* 74ACT138  DECODER/DEMULTIPLEXER 3-8 LINE
*
* FACT ADVANCED CMOS LOGIC DATABOOK, 1990, NATIONAL SEMICONDUCTOR
* JLS   8-4-92   REMODELED USING LOGICEXP, PINDLY, AND CONSTRAINT DEVICES
*    
.SUBCKT 74ACT138   E3_I E1BAR_I E2BAR_I A0_I A1_I A2_I
+ O0BAR_O O1BAR_O O2BAR_O O3BAR_O O4BAR_O O5BAR_O O6BAR_O O7BAR_O
+ OPTIONAL: DPWR=$G_DPWR DGND=$G_DGND
+ PARAMS: MNTYMXDLY=0 IO_LEVEL=0
*
UACT138LOG LOGICEXP (6,15) DPWR DGND
+ E3_I E1BAR_I E2BAR_I A0_I A1_I A2_I
+ E3   E1BAR   E2BAR   A0   A1   A2   ENABLE
+ O0BAR O1BAR O2BAR O3BAR O4BAR O5BAR O6BAR O7BAR
+ D0_GATE IO_ACT
+ IO_LEVEL={IO_LEVEL}
+
+ LOGIC:
+   E3     = { E3_I }
+   E1BAR  = { E1BAR_I }
+   E2BAR  = { E2BAR_I }
+   A0     = { A0_I }
+   A1     = { A1_I }
+   A2     = { A2_I }
+   A0BAR  = { ~A0 }
+   A1BAR  = { ~A1 }
+   A2BAR  = { ~A2 }
+   ENABLE = { ~E1BAR & ~E2BAR & E3 }
+   O0BAR  = { ~(ENABLE & A2BAR & A1BAR & A0BAR) }
+   O1BAR  = { ~(ENABLE & A2BAR & A1BAR & A0   ) }
+   O2BAR  = { ~(ENABLE & A2BAR & A1    & A0BAR) }
+   O3BAR  = { ~(ENABLE & A2BAR & A1    & A0   ) }
+   O4BAR  = { ~(ENABLE & A2    & A1BAR & A0BAR) }
+   O5BAR  = { ~(ENABLE & A2    & A1BAR & A0   ) }
+   O6BAR  = { ~(ENABLE & A2    & A1    & A0BAR) }
+   O7BAR  = { ~(ENABLE & A2    & A1    & A0   ) }
*
UACT138DLY PINDLY (8,0,7) DPWR DGND
+ O0BAR O1BAR O2BAR O3BAR O4BAR O5BAR O6BAR O7BAR
+ ENABLE E3 E1BAR E2BAR A0 A1 A2
+ O0BAR_O O1BAR_O O2BAR_O O3BAR_O O4BAR_O O5BAR_O O6BAR_O O7BAR_O
+ IO_ACT
+ MNTYMXDLY={MNTYMXDLY} IO_LEVEL={IO_LEVEL}
+
+ BOOLEAN:
+   ABLE    = { CHANGED(ENABLE,0) &  CHANGED(E3,0) }
+   ABLEBAR = { CHANGED(ENABLE,0) & (CHANGED(E1BAR,0) | CHANGED(E2BAR,0)) }
+   ADDR    = { CHANGED(A0,0) | CHANGED(A1,0) | CHANGED(A2,0) }
+
+ PINDLY:
+   O0BAR_O O1BAR_O O2BAR_O O3BAR_O O4BAR_O O5BAR_O O6BAR_O O7BAR_O = {
+     CASE (
+       ABLE    & TRN_HL, DELAY(1.5NS,6.5NS,11.5NS),
+       ADDR    & TRN_HL, DELAY(1.5NS,6.5NS,11.5NS),
+       ADDR    & TRN_LH, DELAY(1.5NS,7.0NS,11.5NS),
+       ABLEBAR & TRN_HL, DELAY(2.0NS,7.5NS,12.5NS),
+       ABLEBAR & TRN_LH, DELAY(2.0NS,8.0NS,12.5NS),
+       ABLE    & TRN_LH, DELAY(2.0NS,8.0NS,13.0NS),
+       DELAY(2.0NS,8.0NS,13.0NS)
+       )
+     }
*
.ENDS
*
*$
*--------
* 74ACT139  DECODER/DEMULTIPLEXER 2-4 LINE
*
* FACT ADVANCED CMOS LOGIC DATABOOK, 1990, NATIONAL SEMICONDUCTOR
* JLS   7-31-92   REMODELED USING LOGICEXP, PINDLY, AND CONSTRAINT DEVICES
*    
.SUBCKT 74ACT139   EBAR_I A0_I A1_I   O0BAR_O O1BAR_O O2BAR_O O3BAR_O
+ OPTIONAL: DPWR=$G_DPWR DGND=$G_DGND
+ PARAMS: MNTYMXDLY=0 IO_LEVEL=0
*
UACT139LOG LOGICEXP (3,7) DPWR DGND
+ EBAR_I A0_I A1_I
+ EBAR   A0   A1
+ O0BAR O1BAR O2BAR O3BAR
+ D0_GATE IO_ACT
+ IO_LEVEL={IO_LEVEL}
+
+ LOGIC:
+   EBAR   = { EBAR_I }
+   A0     = { A0_I }
+   A1     = { A1_I }
+   A0BAR  = { ~A0 }
+   A1BAR  = { ~A1 }
+   ENABLE = { ~EBAR }
+   O0BAR  = { ~(ENABLE & A1BAR & A0BAR ) }
+   O1BAR  = { ~(ENABLE & A1BAR & A0    ) }
+   O2BAR  = { ~(ENABLE & A1    & A0BAR ) }
+   O3BAR  = { ~(ENABLE & A1    & A0    ) }
*
UACT139DLY PINDLY (4,0,3) DPWR DGND
+ O0BAR O1BAR O2BAR O3BAR
+ EBAR A0 A1
+ O0BAR_O O1BAR_O O2BAR_O O3BAR_O
+ IO_ACT
+ MNTYMXDLY={MNTYMXDLY} IO_LEVEL={IO_LEVEL}
+
+ BOOLEAN:
+   ABLE = { CHANGED(EBAR,0) }
+   ADDR = { CHANGED(A0,0) | CHANGED(A1,0) }
+
+ PINDLY:
+   O0BAR_O O1BAR_O O2BAR_O O3BAR_O = {
+     CASE (
+       ADDR & TRN_LH, DELAY(1.5NS,6.0NS, 9.5NS),
+       ADDR & TRN_HL, DELAY(1.5NS,6.0NS,10.5NS),
+       ABLE & TRN_LH, DELAY(2.0NS,7.0NS,11.0NS),
+       ABLE & TRN_HL, DELAY(1.5NS,7.0NS,10.5NS),
+       DELAY(2.0NS,7.0NS,11.0NS)
+       )
+     }
*
.ENDS
*
*$
*---------
* 74ACT151  MULTIPLEXER/DATA SELECTOR 8-1 LINE
*
* FAST ADVANCED LOGIC DATA BOOK, 1990, NATIONAL SEMICONDUCTOR
* TC  08/21/92  REMODELED USING LOGICEXP, PINDLY, & CONSTRAINT DEVICES
*
.SUBCKT 74ACT151 EBAR_I S0_I S1_I S2_I I0_I I1_I I2_I I3_I I4_I I5_I I6_I I7_I
+ Z_O ZBAR_O
+ OPTIONAL: DPWR=$G_DPWR DGND=$G_DGND
+ PARAMS: MNTYMXDLY=0 IO_LEVEL=0
*
UACT151LOG LOGICEXP(12,14) DPWR DGND
+ EBAR_I S0_I S1_I S2_I I0_I I1_I I2_I I3_I I4_I I5_I I6_I I7_I
+ EBAR S0 S1 S2 I0 I1 I2 I3 I4 I5 I6 I7 Z ZBAR
+ D0_GATE IO_ACT IO_LEVEL={IO_LEVEL}
+ LOGIC:
+   EBAR = { EBAR_I }
+   S0 = { S0_I }
+   S1 = { S1_I }
+   S2 = { S2_I }
+   I0 = { I0_I }
+   I1 = { I1_I }
+   I2 = { I2_I }
+   I3 = { I3_I }
+   I4 = { I4_I }
+   I5 = { I5_I }
+   I6 = { I6_I }
+   I7 = { I7_I }
+   IS0 = { ~S0 }
+   IS1 = { ~S1 }
+   IS2 = { ~S2 }
+   IE = { ~EBAR }
+   II0 = { I0 & IS0 & IS1 & IS2 & IE }
+   II1 = { I1 & S0 & IS1 & IS2 & IE }
+   II2 = { I2 & IS0 & S1 & IS2 & IE }
+   II3 = { I3 & S0 & S1 & IS2 & IE }
+   II4 = { I4 & IS0 & IS1 & S2 & IE }
+   II5 = { I5 & S0 & IS1 & S2 & IE }
+   II6 = { I6 & IS0 & S1 & S2 & IE }
+   II7 = { I7 & S0 & S1 & S2 & IE }
+   ZBAR = { ~(II0 | II1 | II2 | II3 | II4 | II5 | II6 | II7) }
+   Z = { ~ZBAR }
*
UACT151DLY PINDLY (2,0,12) DPWR DGND
+ ZBAR Z
+ EBAR S0 S1 S2 I0 I1 I2 I3 I4 I5 I6 I7
+ ZBAR_O Z_O
+ IO_ACT MNTYMXDLY={MNTYMXDLY} IO_LEVEL={IO_LEVEL}
+ BOOLEAN:
+   DATA = { CHANGED(I0,0) | CHANGED(I1,0) | CHANGED(I2,0) | CHANGED(I3,0) |
+     CHANGED(I4,0) | CHANGED(I5,0) | CHANGED(I6,0) | CHANGED(I7,0) }
+   SELECT = { CHANGED(S0,0) | CHANGED(S1,0) | CHANGED(S2,0) }
+   ENABLE = { CHANGED(EBAR,0) }
+ PINDLY:
+   Z_O = {
+     CASE(
+       SELECT & TRN_LH, DELAY(3NS,12.5NS,17NS),
+       SELECT & TRN_HL, DELAY(3NS,12.5NS,16.5NS),
+       DATA & TRN_HL, DELAY(3NS,8NS,13.5NS),
+       DATA & TRN_LH, DELAY(3NS,7.5NS,12.5NS),
+       ENABLE, DELAY(2.5NS,6NS,10NS),
+       DELAY(4NS,13NS,18NS)
+       )
+     }
+   ZBAR_O = {
+     CASE(
+       SELECT & TRN_HL, DELAY(3.5NS,12.5NS,18.5NS),
+       SELECT & TRN_LH, DELAY(3NS,12.5NS,16.5NS),
+       DATA & TRN_HL, DELAY(3NS,8NS,14NS),
+       DATA & TRN_LH, DELAY(3NS,8NS,13NS),
+       ENABLE & TRN_HL, DELAY(2.5NS,6.5NS,10.5NS),
+       ENABLE & TRN_LH, DELAY(2.5NS,6NS,9.5NS),
+       DELAY(4NS,13NS,19NS)
+       )
+     }
*
.ENDS
*
*$
*---------
* 74ACT153  DUAL 4-LINE TO 1-LINE DATA SELECTORS/MULTIPLEXERS
*
* FACT Advanced CMOS Logic Data Book, 1990, NATIONAL SEMICONDUCTOR
* JSW   8/12/92   Remodeled using LOGICEXP, PINDLY, & CONSTRAINT devices
*
.SUBCKT 74ACT153 EABAR_I EBBAR_I S0_I S1_I I0A_I I1A_I I2A_I  I3A_I
+ I0B_I I1B_I I2B_I I3B_I ZA_O ZB_O
+ OPTIONAL: DPWR=$G_DPWR DGND=$G_DGND
+ PARAMS: MNTYMXDLY=0 IO_LEVEL=0
*
UACT153LOG LOGICEXP(12,14) DPWR DGND
+ EABAR_I EBBAR_I S0_I S1_I I0A_I I1A_I I2A_I I3A_I I0B_I I1B_I I2B_I I3B_I
+ EABAR EBBAR S0 S1 I0A I1A I2A  I3A I0B I1B I2B I3B ZA ZB
+ D0_GATE IO_ACT IO_LEVEL={IO_LEVEL}
+ LOGIC:
+   EABAR = { EABAR_I }
+   EBBAR = { EBBAR_I }
+   S0 = { S0_I }
+   S1 = { S1_I }
+   I0A = { I0A_I }
+   I1A = { I1A_I }
+   I2A = { I2A_I }
+   I3A = { I3A_I }
+   I0B = { I0B_I }
+   I1B = { I1B_I }
+   I2B = { I2B_I }
+   I3B = { I3B_I }
+   G1 = { ~EABAR }
+   G2 = { ~EBBAR }
+   S0BAR = { ~S0 }
+   S1BAR = { ~S1 }
+   I0 = { G1 & S1BAR & S0BAR & I0A }
+   I1 = { G1 & S1BAR & S0    & I1A }
+   I2 = { G1 & S1    & S0BAR & I2A }
+   I3 = { G1 & S1    & S0    & I3A }
+   I4 = { G2 & S1BAR & S0BAR & I0B }
+   I5 = { G2 & S1BAR & S0    & I1B }
+   I6 = { G2 & S1    & S0BAR & I2B }
+   I7 = { G2 & S1    & S0    & I3B }
+   ZA = { I0 | I1 | I2 | I3 }
+   ZB = { I4 | I5 | I6 | I7 }
*
UACT153DLY PINDLY (2,0,12) DPWR DGND
+ ZA ZB
+ EABAR EBBAR S0 S1 I0A I1A I2A I3A I0B I1B I2B I3B
+ ZA_O ZB_O
+ IO_ACT
+ MNTYMXDLY = {MNTYMXDLY} IO_LEVEL = {IO_LEVEL}
+ BOOLEAN:
+   DATA1 = { (CHANGED(I0A,0) | CHANGED(I1A,0) | CHANGED(I2A,0) |
+     CHANGED(I3A,0)) }
+   DATA2 = { (CHANGED(I0B,0) | CHANGED(I1B,0) | CHANGED(I2B,0) |
+     CHANGED(I3B,0)) }
+   SELECT = { CHANGED(S0,0) | CHANGED(S1,0) }
+ PINDLY:
+   ZA_O = {
+     CASE(
+       SELECT & TRN_LH, DELAY(2NS,7NS,13.5NS),
+       SELECT & TRN_HL, DELAY(2.5NS,7NS,13.5NS),
+       CHANGED(EABAR,0) & TRN_LH, DELAY(2NS,6.5NS,12.5NS),
+       CHANGED(EABAR,0) & TRN_HL, DELAY(2.5NS,6NS,11NS),
+       DATA1, DELAY(2NS,5.5NS,11NS),
+       DELAY(3NS,8NS,14NS)
+       )
+     }
+   ZB_O = {
+     CASE(
+       SELECT & TRN_LH, DELAY(2NS,7NS,13.5NS),
+       SELECT & TRN_HL, DELAY(2.5NS,7NS,13.5NS),
+       CHANGED(EBBAR,0) & TRN_LH, DELAY(2NS,6.5NS,12.5NS),
+       CHANGED(EBBAR,0) & TRN_HL, DELAY(2.5NS,6NS,11NS),
+       DATA2, DELAY(2NS,5.5NS,11NS),
+       DELAY(3NS,8NS,14NS)
+       )
+     }
*
.ENDS
*
*$
*---------
* 74ACT154  DECODER/DEMULTIPLEXER 4-16 LINE
*
* ADVANCED CMOS LOGIC HD74AC SERIES, 1989, HITACHI
* JLS   8-7-92   REMODELED USING LOGICEXP, PINDLY, AND CONSTRAINT DEVICES
*    
.SUBCKT 74ACT154   E0BAR_I E1BAR_I A0_I A1_I A2_I A3_I
+ Y0_O Y1_O  Y2_O  Y3_O  Y4_O  Y5_O  Y6_O  Y7_O
+ Y8_O Y9_O Y10_O Y11_O Y12_O Y13_O Y14_O Y15_O
+ OPTIONAL: DPWR=$G_DPWR DGND=$G_DGND
+ PARAMS: MNTYMXDLY=0 IO_LEVEL=0
*
UACT154LOG LOGICEXP (6,21) DPWR DGND
+ E0BAR_I E1BAR_I A0_I A1_I A2_I A3_I
+ ENABLE          A0   A1   A2   A3
+ Y0 Y1 Y2 Y3 Y4 Y5 Y6 Y7 Y8 Y9 Y10 Y11 Y12 Y13 Y14 Y15
+ D0_GATE IO_ACT
+ IO_LEVEL={IO_LEVEL}
+
+ LOGIC:
+   E0BAR  = { E0BAR_I }
+   E1BAR  = { E1BAR_I }
+   ENABLE = { ~(E0BAR | E1BAR) }
+   A0     = { A0_I }
+   A1     = { A1_I }
+   A2     = { A2_I }
+   A3     = { A3_I }
+   A0BAR  = { ~A0 }
+   A1BAR  = { ~A1 }
+   A2BAR  = { ~A2 }
+   A3BAR  = { ~A3 }
+   Y0     = { ~(ENABLE & A3BAR & A2BAR & A1BAR & A0BAR) }
+   Y1     = { ~(ENABLE & A3BAR & A2BAR & A1BAR & A0   ) }
+   Y2     = { ~(ENABLE & A3BAR & A2BAR & A1    & A0BAR) }
+   Y3     = { ~(ENABLE & A3BAR & A2BAR & A1    & A0   ) }
+   Y4     = { ~(ENABLE & A3BAR & A2    & A1BAR & A0BAR) }
+   Y5     = { ~(ENABLE & A3BAR & A2    & A1BAR & A0   ) }
+   Y6     = { ~(ENABLE & A3BAR & A2    & A1    & A0BAR) }
+   Y7     = { ~(ENABLE & A3BAR & A2    & A1    & A0   ) }
+   Y8     = { ~(ENABLE & A3    & A2BAR & A1BAR & A0BAR) }
+   Y9     = { ~(ENABLE & A3    & A2BAR & A1BAR & A0   ) }
+   Y10    = { ~(ENABLE & A3    & A2BAR & A1    & A0BAR) }
+   Y11    = { ~(ENABLE & A3    & A2BAR & A1    & A0   ) }
+   Y12    = { ~(ENABLE & A3    & A2    & A1BAR & A0BAR) }
+   Y13    = { ~(ENABLE & A3    & A2    & A1BAR & A0   ) }
+   Y14    = { ~(ENABLE & A3    & A2    & A1    & A0BAR) }
+   Y15    = { ~(ENABLE & A3    & A2    & A1    & A0   ) }
*
UACT154DLY PINDLY (16,0,5) DPWR DGND
+ Y0 Y1 Y2 Y3 Y4 Y5 Y6 Y7 Y8 Y9 Y10 Y11 Y12 Y13 Y14 Y15
+ ENABLE A0 A1 A2 A3
+ Y0_O Y1_O  Y2_O  Y3_O  Y4_O  Y5_O  Y6_O  Y7_O
+ Y8_O Y9_O Y10_O Y11_O Y12_O Y13_O Y14_O Y15_O
+ IO_ACT
+ MNTYMXDLY={MNTYMXDLY} IO_LEVEL={IO_LEVEL}
+
+ BOOLEAN:
+   ABLE = { CHANGED(ENABLE,0) }
+   ADDR = { CHANGED(A0,0) | CHANGED(A1,0) | CHANGED(A2,0) | CHANGED(A3,0) }
+
+ PINDLY:
+   Y0_O Y1_O  Y2_O  Y3_O  Y4_O  Y5_O  Y6_O  Y7_O
+   Y8_O Y9_O Y10_O Y11_O Y12_O Y13_O Y14_O Y15_O = {
+     CASE (
+       ABLE         , DELAY(1.0NS, 9.5NS,12.5NS),
+       ADDR & TRN_HL, DELAY(1.0NS,10.0NS,13.5NS),
+       ADDR & TRN_LH, DELAY(1.0NS,11.0NS,14.5NS),
+       DELAY(1.0NS,11.0NS,14.5NS)
+       )
+     }
*
.ENDS
*
*$
*---------
* 74ACT157  QUADRUPLE 2-LINE TO 1-LINE DATA SELECTORS/MULTIPLEXERS
*
* FACT Advanced CMOS Logic Data Book, 1990, NATIONAL SEMICONDUCTOR
* JSW   8/25/92   Remodeled using LOGICEXP, PINDLY, & CONSTRAINT devices
*
.SUBCKT 74ACT157 EBAR_I I0A_I I1A_I I0B_I I1B_I I0C_I I1C_I I0D_I I1D_I S_I
+ ZA_O ZB_O ZC_O ZD_O
+ OPTIONAL: DPWR=$G_DPWR DGND=$G_DGND
+ PARAMS: MNTYMXDLY=0 IO_LEVEL=0
*
UACT157LOG LOGICEXP(10,14) DPWR DGND
+ EBAR_I I0A_I I1A_I I0B_I I1B_I I0C_I I1C_I I0D_I I1D_I S_I
+ EBAR I0A I1A I0B I1B I0C I1C I0D I1D S ZA ZB ZC ZD
+ D0_GATE IO_ACT IO_LEVEL={IO_LEVEL}
+ LOGIC:
+   EBAR = { EBAR_I }
+   I0A = { I0A_I }
+   I1A = { I1A_I }
+   I0B = { I0B_I }
+   I1B = { I1B_I }
+   I0C = { I0C_I }
+   I1C = { I1C_I }
+   I0D = { I0D_I }
+   I1D = { I1D_I }
+   S = { S_I }
+   SBAR = { ~S }
+   E = { ~EBAR }
+   ZA = { (I0A & SBAR & E) | (I1A & S & E) }
+   ZB = { (I0B & SBAR & E) | (I1B & S & E) }
+   ZC = { (I0C & SBAR & E) | (I1C & S & E) }
+   ZD = { (I0D & SBAR & E) | (I1D & S & E) }
*
UACT157DLY PINDLY (4,0,10) DPWR DGND
+ ZA ZB ZC ZD
+ EBAR I0A I1A I0B I1B I0C I1C I0D I1D S
+ ZA_O ZB_O ZC_O ZD_O
+ IO_ACT
+ MNTYMXDLY = {MNTYMXDLY} IO_LEVEL = {IO_LEVEL}
+ BOOLEAN:
+   DATA = { CHANGED(I0A,0) | CHANGED(I1A,0) | CHANGED(I0B,0) | CHANGED(I1B,0) |
+     CHANGED(I0C,0) | CHANGED(I1C,0) | CHANGED(I0D,0) | CHANGED(I1D,0) }
+   SELECT = { CHANGED(S,0) }
+   ENABLE = { CHANGED(EBAR,0) }
+ PINDLY:
+   ZA_O ZB_O ZC_O ZD_O = {
+     CASE(
+       ENABLE & TRN_LH, DELAY(1.5NS,6NS,11.5NS),
+       SELECT & TRN_HL, DELAY(2NS,5.5NS,10.5NS),
+       SELECT & TRN_LH, DELAY(1.5NS,5.5NS,10NS),
+       ENABLE & TRN_HL, DELAY(1NS,5NS,9NS),
+       DATA & TRN_LH, DELAY(1NS,4NS,8.5NS),
+       DATA & TRN_HL, DELAY(1NS,4.5NS,8.5NS),
+       DELAY(3NS,7NS,12NS)
+       )
+     }
*
.ENDS
*
*$
*---------
* 74ACT161  Synchronous 4-bit Binary Counter with Direct Clear
*
* THE FACT ADVANCED CMOS LOGIC DATA BOOK, 1990, NATIONAL SEMICONDUCTOR CORP.
* tc  07/02/92  Remodeled using LOGICEXP, PINDLY & CONSTRAINT devices
*
.SUBCKT 74ACT161 CP_I CEP_I CET_I MRBAR_I PEBAR_I P0_I P1_I P2_I P3_I
+ Q0_O Q1_O Q2_O Q3_O TC_O
+ OPTIONAL: DPWR=$G_DPWR DGND=$G_DGND
+ PARAMS: MNTYMXDLY=0 IO_LEVEL=0
*
* NOTE: Philips Semiconductors 1990 74F161A's logic is used.
*
U1 DFF(4) DPWR DGND $D_HI MRBAR CP
+ D0 D1 D2 D3 Q0 Q1 Q2 Q3 Q0BAR Q1BAR Q2BAR Q3BAR
+ D0_EFF IO_AC
*
UACT161LOG LOGICEXP(17,15) DPWR DGND
+ CP_I CEP_I CET_I MRBAR_I PEBAR_I P0_I P1_I P2_I P3_I Q0 Q1 Q2 Q3
+ Q0BAR Q1BAR Q2BAR Q3BAR
+ CP CEP CET MRBAR PEBAR P0 P1 P2 P3 D0 D1 D2 D3 TC IEN
+ D0_GATE IO_AC IO_LEVEL={IO_LEVEL}
+ LOGIC:
+   CP = { CP_I }
+   CEP = { CEP_I }
+   CET = { CET_I }
+   MRBAR = { MRBAR_I }
+   PEBAR = { PEBAR_I }
+   P0 = { P0_I }
+   P1 = { P1_I }
+   P2 = { P2_I }
+   P3 = { P3_I }
+   IEN = { PEBAR & CEP & CET }
+   IPE = { ~PEBAR }
+   I0 = { (PEBAR & Q0) ^ IEN }
+   I1 = { (PEBAR & Q1) ^ (IEN & Q0) }
+   I2 = { (PEBAR & Q2) ^ (IEN & Q0 & Q1) }
+   I3 = { (PEBAR & Q3) ^ (IEN & Q0 & Q1 & Q2) }
+   D0 = { (P0 & IPE) | I0 }
+   D1 = { (P1 & IPE) | I1 }
+   D2 = { (P2 & IPE) | I2 }
+   D3 = { (P3 & IPE) | I3 }
+   TC = { CET & Q0 & Q1 & Q2 & Q3 }
*
UACT161DLY PINDLY (5,0,10) DPWR DGND
+ TC Q0 Q1 Q2 Q3
+ CP CET MRBAR CEP PEBAR P0 P1 P2 P3 IEN
+ TC_O Q0_O Q1_O Q2_O Q3_O
+ IO_ACT MNTYMXDLY={MNTYMXDLY} IO_LEVEL={IO_LEVEL}
+ BOOLEAN:
+   CLOCK = { CHANGED_LH(CP,0) }
+ PINDLY:
+   Q0_O Q1_O Q2_O Q3_O = {
+     CASE(
+       CLOCK & TRN_LH, DELAY(1.5NS,5.5NS,10.5NS),
+       CHANGED_HL(MRBAR,0), DELAY(1.5NS,6NS,11NS),
+       CLOCK & TRN_HL, DELAY(1.5NS,6NS,11.5NS),
+       DELAY(1.5NS,6NS,11.5NS)
+       )
+     }
+   TC_O = {
+     CASE(
+       CHANGED(CET,0) & TRN_LH, DELAY(1.5NS,5.5NS,10NS),
+       CHANGED(CET,0) & TRN_HL, DELAY(1.5NS,6.5NS,10.5NS),
+       CLOCK & TRN_LH, DELAY(1.5NS,7NS,12.5NS),
+       CLOCK & TRN_HL, DELAY(1.5NS,8NS,13.5NS),
+       CHANGED_HL(MRBAR,0), DELAY(2NS,8NS,14.5NS),
+       DELAY(2NS,8NS,14.5NS)
+       )
+     }
+ FREQ:
+   NODE = CP
+   MAXFREQ = 100MEG
+ WIDTH:
+   NODE = CP
+   MIN_LO = 3.5NS
+   MIN_HI = 3.5NS
+ WIDTH:
+   NODE = MRBAR
+   MIN_LO = 7.5NS
+ SETUP_HOLD:
+   DATA(4) = P0 P1 P2 P3
+   CLOCK LH = CP
+   SETUPTIME = 11.5NS
+   WHEN = { (PEBAR!='1 ^ CHANGED(PEBAR,0)) & MRBAR!='0 }
+ SETUP_HOLD:
+   DATA(1) = PEBAR
+   CLOCK LH = CP
+   SETUPTIME = 9.5NS
+   WHEN = { MRBAR!='0 }
+ SETUP_HOLD:
+   DATA(2) = CEP CET
+   CLOCK LH = CP
+   SETUPTIME = 6.5NS
+   WHEN = { (PEBAR!='0 ^ CHANGED(PEBAR,0)) & MRBAR!='0 &
+     CHANGED(IEN,6.5NS) }
+ SETUP_HOLD:
+   DATA(1) = MRBAR
+   CLOCK LH = CP
+   RELEASETIME_LH = .5NS
*
.ENDS
*
*$
*---------
* 74ACT163  Synchronous 4-bit Binary Counter
*
* THE FACT ADVANCED CMOS LOGIC DATA BOOK, 1990, NATIONAL SEMICONDUCTOR CORP.
* tc  07/08/92  Remodeled using LOGICEXP, PINDLY & CONSTRAINT Devices
*
.SUBCKT 74ACT163 CP_I CEP_I CET_I SRBAR_I PEBAR_I P0_I P1_I P2_I P3_I
+ Q0_O Q1_O Q2_O Q3_O TC_O
+ OPTIONAL: DPWR=$G_DPWR DGND=$G_DGND
+ PARAMS: MNTYMXDLY=0 IO_LEVEL=0
*
* NOTE: Philips Semiconductor 1990 74F163A's logic is used.
*
U1 DFF(4) DPWR DGND $D_HI $D_HI CP
+ D0 D1 D2 D3 Q0 Q1 Q2 Q3 Q0BAR Q1BAR Q2BAR Q3BAR
+ D0_EFF IO_ACT
*
UACT163LOG LOGICEXP(17,15) DPWR DGND
+ CP_I CEP_I CET_I SRBAR_I PEBAR_I P0_I P1_I P2_I P3_I Q0 Q1 Q2 Q3
+  Q0BAR Q1BAR Q2BAR Q3BAR
+ CP CEP CET SRBAR PEBAR P0 P1 P2 P3 D0 D1 D2 D3 TC IEN
+ D0_GATE IO_ACT IO_LEVEL={IO_LEVEL}
+ LOGIC:
+   CP = { CP_I }
+   CEP = { CEP_I }
+   CET = { CET_I }
+   SRBAR = { SRBAR_I }
+   PEBAR = { PEBAR_I }
+   P0 = { P0_I }
+   P1 = { P1_I }
+   P2 = { P2_I }
+   P3 = { P3_I }
+   IEN = { PEBAR & CEP & CET }
+   IPE = { ~PEBAR }
+   I0 = { (PEBAR & SRBAR & Q0) ^ (IEN & SRBAR) }
+   I1 = { (PEBAR & SRBAR & Q1) ^ (IEN & SRBAR & Q0) }
+   I2 = { (PEBAR & SRBAR & Q2) ^ (IEN & SRBAR & Q0 & Q1) }
+   I3 = { (PEBAR & SRBAR & Q3) ^ (IEN & SRBAR & Q0 & Q1 & Q2) }
+   D0 = { (P0 & IPE & SRBAR) | I0 }
+   D1 = { (P1 & IPE & SRBAR) | I1 }
+   D2 = { (P2 & IPE & SRBAR) | I2 }
+   D3 = { (P3 & IPE & SRBAR) | I3 }
+   TC = { CET & Q0 & Q1 & Q2 & Q3 }
*
UACT163DLY PINDLY (5,0,10) DPWR DGND
+ TC Q3 Q2 Q1 Q0
+ CP CET SRBAR CEP PEBAR P0 P1 P2 P3 IEN
+ TC_O Q3_O Q2_O Q1_O Q0_O
+ IO_ACT MNTYMXDLY={MNTYMXDLY} IO_LEVEL={IO_LEVEL}
+ BOOLEAN:
+   CLOCK = { CHANGED_LH(CP,0) }
+ PINDLY:
+   Q3_O Q2_O Q1_O Q0_O = {
+     CASE(
+       CLOCK & TRN_LH, DELAY(1.5NS,5.5NS,11NS),
+       CLOCK & TRN_HL, DELAY(1.5NS,6NS,12NS),
+       DELAY(1.5NS,6NS,12NS)
+       )
+     }
+   TC_O = {
+     CASE(
+       CHANGED(CET,0) & TRN_LH, DELAY(1.5NS,5.5NS,10.5NS),
+       CHANGED(CET,0) & TRN_HL, DELAY(2NS,6NS,11NS),
+       CLOCK & TRN_LH, DELAY(2NS,7NS,13.5NS),
+       CLOCK & TRN_HL, DELAY(2NS,8NS,15NS),
+       DELAY(2NS,8NS,15NS)
+       )
+     }
+ BOOLEAN:
+   NOTRESET = { SRBAR!='0 ^ CHANGED(SRBAR,0) }
+ FREQ:
+   NODE = CP
+   MAXFREQ = 105MEG
+ WIDTH:
+   NODE = CP
+   MIN_LO = 3.5NS
+   MIN_HI = 3.5NS
+ SETUP_HOLD:
+   DATA(4) = P0 P1 P2 P3
+   CLOCK LH = CP
+   SETUPTIME = 12NS
+   HOLDTIME = .5NS
+   WHEN = { (PEBAR!='1 ^ CHANGED(PEBAR,0)) & NOTRESET }
+ SETUP_HOLD:
+   DATA(1) = PEBAR
+   CLOCK LH = CP
+   SETUPTIME = 10.5NS
+   WHEN = { NOTRESET }
+ SETUP_HOLD:
+   DATA(2) = CEP CET
+   CLOCK LH = CP
+   SETUPTIME = 6.5NS
+   HOLDTIME = .5NS
+   WHEN = { (PEBAR!='0 ^ CHANGED(PEBAR,0)) & NOTRESET & CHANGED(IEN,6.5NS) }
+ SETUP_HOLD:
+   DATA(1) = SRBAR
+   CLOCK LH = CP
+   SETUPTIME = 11.5NS
*
.ENDS
*
*$
*---------
*74ACT164  8-BIT PARALLEL-OUT SERIAL SHIFT REGISTERS
*
* ADVANCED CMOS LOGIC DATA BOOK 88, HIT
* KN   7-6-92        REMODELED USING LOGICEXP, PINDLY, CONSTRAINT DEVICES
*
.SUBCKT 74ACT164  MRBAR_I CP_I A_I B_I Q0_O Q1_O Q2_O Q3_O Q4_O Q5_O Q6_O Q7_O
+ OPTIONAL: DPWR=$G_DPWR DGND=$G_DGND
+ PARAMS: MNTYMXDLY=0 IO_LEVEL=0
*
U1 BUFA(4) DPWR DGND
+ MRBAR_I CP_I A_I B_I  MRBAR CP A B
+ D0_GATE IO_ACT  IO_LEVEL={IO_LEVEL}
*
U2 AND(2) DPWR DGND
+ A B IN
+ D0_GATE IO_ACT 
*
U3 DFF(8) DPWR DGND
+ $D_HI   MRBAR  CP
+ IN   Q0  Q1  Q2  Q3  Q4  Q5  Q6
+ Q0  Q1  Q2  Q3  Q4  Q5  Q6  Q7
+ $D_NC   $D_NC   $D_NC   $D_NC   $D_NC   $D_NC   $D_NC   $D_NC
+ D0_EFF IO_ACT 
*
*
U164DLY PINDLY (8,0,4) DPWR DGND
+ Q0 Q1 Q2 Q3 Q4 Q5 Q6 Q7
+ MRBAR CP A B
+ Q0_O Q1_O Q2_O Q3_O Q4_O Q5_O Q6_O Q7_O
+ IO_ACT MNTYMXDLY={MNTYMXDLY} IO_LEVEL={IO_LEVEL}
+ PINDLY:
+   Q0_O Q1_O Q2_O Q3_O Q4_O Q5_O Q6_O Q7_O = {
+     CASE(
+       CHANGED_LH(CP,0), DELAY(1.0NS,9.0NS,12.5NS),
+       CHANGED_HL(MRBAR,0), DELAY(1.0NS,9.5NS,14.5NS),
+       DELAY(2.0NS,10.5NS,15.5NS)  ;DEFAULT
+       )
+     }
+
+ FREQ:
+   NODE = CP
+   MAXFREQ = 80MEG
+
+ WIDTH:
+   NODE = CP
+   MIN_HIGH = 8.0NS
+
+ WIDTH:
+   NODE = MRBAR
+   MIN_LOW =8.0NS
+
+ SETUP_HOLD:
+   CLOCK LH = CP
+   DATA(2) A B
+   SETUPTIME = 8NS
+   HOLDTIME = 1.5NS
+   WHEN = { MRBAR != '0 }
+
+ SETUP_HOLD:
+   CLOCK LH = CP
+   DATA(1) MRBAR
+   RELEASETIME_LH = 2.0NS
*
.ENDS
*
*$
*---------
* 74ACT166  PARALLEL LOAD 8-BIT SHIFT REGISTERS
*
* ADVANCED CMOS LOGIC HD74AC SERIES, HITACHI AMERICA, 1989
* NH   7-22-92      REMODELED USING LOGICEXP, PINDLY, CONSTRAINT DEVICES
*
.SUBCKT 74ACT166 MRBAR_I PEBAR_I CP1_I CP2_I DS_I P0_I P1_I P2_I P3_I P4_I P5_I
+ P6_I P7_I Q7_O
+ OPTIONAL: DPWR=$G_DPWR    DGND=$G_DGND
+ PARAMS:   MNTYMXDLY=0     IO_LEVEL=0
*
UACT166LOG LOGICEXP(20,22) DPWR DGND
+ MRBAR_I PEBAR_I CP1_I CP2_I DS_I P0_I P1_I P2_I P3_I P4_I P5_I P6_I P7_I
+  Q0 Q1 Q2 Q3 Q4 Q5 Q6
+ MRBAR PEBAR CP1 CP2 DS P0 P1 P2 P3 P4 P5 P6 P7 D0 D1 D2 D3 D4 D5 D6 D7 CK
+ D0_GATE   IO_ACT  IO_LEVEL={IO_LEVEL}
+
+ LOGIC:
+   MRBAR  = { MRBAR_I }
+   PEBAR  = { PEBAR_I }
+   CP1    = { CP1_I }
+   CP2    = { CP2_I }
+   DS     = { DS_I }
+   P0     = { P0_I }
+   P1     = { P1_I }
+   P2     = { P2_I }
+   P3     = { P3_I }
+   P4     = { P4_I }
+   P5     = { P5_I }
+   P6     = { P6_I }
+   P7     = { P7_I }
+
* INTERMEDIATE TERM
+   PE = { ~PEBAR }
+
+   D0 = { (PEBAR & DS) | (PE & P0) }
+   D1 = { (PEBAR & Q0) | (PE & P1) }