* Library of 74ALS Family Digital Models
*
*  Copyright OrCAD, Inc. 1998 All Rights Reserved.
*
*
* $Revision:   1.3  $
* $Author:   RPEREZ  $
* $Date:   16 Apr 1998 14:15:06  $
*
*
*$
*---------
* 74ALS00A  Quadruple 2-input Positive-Nand Gates
*
* The ALS/AS Data Book, 1986, TI
* tdn   06/23/89	Update interface and model names
*
.subckt 74ALS00A  A B Y
+	optional: DPWR=$G_DPWR DGND=$G_DGND
+	params: MNTYMXDLY=0 IO_LEVEL=0
U1 nand(2) DPWR DGND
+	A B   Y 
+	D_ALS00A IO_ALS00 MNTYMXDLY={MNTYMXDLY} IO_LEVEL={IO_LEVEL} 
.ends
*
.model D_ALS00A ugate (
+	tplhty=7ns	tphlty=5ns
+	tplhmn=3ns	tplhmx=11ns
+	tphlmn=2ns	tphlmx=8ns
+	)
*$
*---------
* 74ALS01  Quadruple 2-input Positive-Nand Gates with Open-Collector Outputs
*
* The ALS/AS Data Book, 1986, TI
* tdn	06/23/89	Update interface and model names
*
.subckt 74ALS01  A B Y
+	optional: DPWR=$G_DPWR DGND=$G_DGND
+	params: MNTYMXDLY=0 IO_LEVEL=0
U1 nand(2) DPWR DGND
+	A B   Y 
+	D_ALS01 IO_ALS00_OC MNTYMXDLY={MNTYMXDLY} IO_LEVEL={IO_LEVEL} 
.ends
*
.model D_ALS01 ugate (
+	tplhmn=23ns	tplhmx=54ns
+	tphlmn=8ns	tphlmx=28ns
+	)
*$
*---------
* 74ALS02  Quadruple 2-input Positive-Nor Gates
*
* The ALS/AS Data Book, 1986, TI
* tdn	06/23/89	Update interface and model names
*
.subckt 74ALS02  A B Y
+	optional: DPWR=$G_DPWR DGND=$G_DGND
+	params: MNTYMXDLY=0 IO_LEVEL=0
U1 nor(2) DPWR DGND
+	A B   Y 
+	D_ALS02 IO_ALS00 MNTYMXDLY={MNTYMXDLY} IO_LEVEL={IO_LEVEL} 
.ends
*
.model D_ALS02 ugate (
+	tplhty=7ns	tphlty=5ns
+	tplhmn=3ns	tplhmx=12ns
+	tphlmn=3ns	tphlmx=10ns
+	)
*$
*---------
* 74ALS03B  Quadruple 2-input Positive-Nand Gates with Open-Collector Outputs
*
* The ALS/AS Data Book, 1986, TI
* tdn	06/23/89	Update interface and model names
*
.subckt 74ALS03B  A B Y
+	optional: DPWR=$G_DPWR DGND=$G_DGND
+	params: MNTYMXDLY=0 IO_LEVEL=0
U1 nand(2) DPWR DGND
+	A B   Y 
+	D_ALS03B IO_ALS00_OC MNTYMXDLY={MNTYMXDLY} IO_LEVEL={IO_LEVEL} 
.ends
*
.model D_ALS03B ugate (
+	tplhty=35ns	tphlty=8ns
+	tplhmn=20ns	tplhmx=50ns
+	tphlmn=3ns	tphlmx=13ns
+	)
*$
*---------
* 74ALS04B  Hex Inverters
* 
* The ALS/AS Data Book, 1986, TI
* tdn 	06/23/89	Update interface and model names
*
.subckt 74ALS04B  A Y
+	optional: DPWR=$G_DPWR DGND=$G_DGND
+	params: MNTYMXDLY=0 IO_LEVEL=0
U1 inv DPWR DGND
+	A   Y 
+	D_ALS04B IO_ALS00 MNTYMXDLY={MNTYMXDLY} IO_LEVEL={IO_LEVEL} 
.ends
*
.model D_ALS04B ugate (
+	tplhmn=3ns	tplhmx=11ns
+	tphlmn=2ns	tphlmx=8ns
+	)
*$
*---------
* 74ALS05A  Hex Inverters with Open-Collector Outputs
*
* The ALS/AS Data Book, 1986, TI
* tdn	06/23/89	Update interface and model names
*
.subckt 74ALS05A  A Y
+	optional: DPWR=$G_DPWR DGND=$G_DGND
+	params: MNTYMXDLY=0 IO_LEVEL=0
U1 inv DPWR DGND
+	A   Y 
+	D_ALS05A IO_ALS00_OC MNTYMXDLY={MNTYMXDLY} IO_LEVEL={IO_LEVEL} 
.ends
*
.model D_ALS05A ugate (
+	tplhty=45ns	tphlty=9ns
+	tplhmn=23ns	tplhmx=54ns
+	tphlmn=4ns	tphlmx=14ns
+	)
*$
*---------
* 74ALS08  Quadruple 2-input Positive-And Gates
*
* The ALS/AS Data Book, 1986, TI
* tdn	06/23/89	Update interface and model names
*
.subckt 74ALS08  A B Y
+	optional: DPWR=$G_DPWR DGND=$G_DGND
+	params: MNTYMXDLY=0 IO_LEVEL=0
U1 and(2) DPWR DGND
+	A B   Y 
+	D_ALS08 IO_ALS00 MNTYMXDLY={MNTYMXDLY} IO_LEVEL={IO_LEVEL} 
.ends
*
.model D_ALS08 ugate (
+	tplhty=8ns	tphlty=6.5ns
+	tplhmn=4ns	tplhmx=14ns
+	tphlmn=3ns	tphlmx=10ns
+	)
*$
*---------
* 74ALS09  Quadruple 2-input Positive-And Gates with Open-Collector Outputs
*
* The ALS/AS Data Book, 1986, TI
* tdn	06/23/89	Update interface and model names
*
.subckt 74ALS09  A B Y
+	optional: DPWR=$G_DPWR DGND=$G_DGND
+	params: MNTYMXDLY=0 IO_LEVEL=0
U1 and(2) DPWR DGND
+	A B   Y 
+	D_ALS09 IO_ALS00_OC MNTYMXDLY={MNTYMXDLY} IO_LEVEL={IO_LEVEL} 
.ends
*
.model D_ALS09 ugate (
+	tplhmn=23ns	tplhmx=54ns
+	tphlmn=5ns	tphlmx=15ns
+	)
*$
*---------
* 74ALS10A  Triple 3-input Positive-Nand Gates
*
* The ALS/AS Data Book, 1986, TI
* tdn	06/23/89	Update interface and model names
*
.subckt 74ALS10A  A B C Y
+	optional: DPWR=$G_DPWR DGND=$G_DGND
+	params: MNTYMXDLY=0 IO_LEVEL=0
U1 nand(3) DPWR DGND
+	A B C   Y 
+	D_ALS10A IO_ALS00 MNTYMXDLY={MNTYMXDLY} IO_LEVEL={IO_LEVEL} 
.ends
*
.model D_ALS10A ugate (
+	tplhmn=2ns	tplhmx=11ns
+	tphlmn=2ns	tphlmx=10ns
+	)
*$
*---------
* 74ALS11A  Triple 3-input Positive-And Gates      
*
* The ALS/AS Data Book, 1986, TI
* tdn	06/23/89	Update interface and model names
*
.subckt 74ALS11A  A B C Y
+	optional: DPWR=$G_DPWR DGND=$G_DGND
+	params: MNTYMXDLY=0 IO_LEVEL=0
U1 and(3) DPWR DGND
+	A B C   Y 
+	D_ALS11A IO_ALS00 MNTYMXDLY={MNTYMXDLY} IO_LEVEL={IO_LEVEL} 
.ends
*
.model D_ALS11A ugate (
+	tplhmn=2ns	tplhmx=13ns
+	tphlmn=2ns	tphlmx=10ns
+	)
*$
*---------
* 74ALS12A  Triple 3-input Positive-Nand Gates with Open-Collector Outputs
*
* The ALS/AS Data Book, 1986, TI
* tdn	06/23/89	Update interface and model names
*
.subckt 74ALS12A  A B C Y
+	optional: DPWR=$G_DPWR DGND=$G_DGND
+	params: MNTYMXDLY=0 IO_LEVEL=0
U1 nand(3) DPWR DGND
+	A B C   Y 
+	D_ALS12A IO_ALS00_OC MNTYMXDLY={MNTYMXDLY} IO_LEVEL={IO_LEVEL} 
.ends
*
.model D_ALS12A ugate (
+	tplhmn=23ns	tplhmx=54ns
+	tphlmn=5ns	tphlmx=18ns
+	)
*$
*-------------------------------------------------------------------------
* 74ALS15A  Triple 3-input Positive-And Gates with Open-Collector Outputs   
*
* The ALS/AS Data Book, 1986, TI
* tdn 	06/26/89	Update interface and model names
*
.subckt 74ALS15A  A B C Y
+	optional: DPWR=$G_DPWR DGND=$G_DGND
+	params: MNTYMXDLY=0 IO_LEVEL=0
U1 and(3) DPWR DGND
+	A B C   Y 
+	D_ALS15A IO_ALS00_OC MNTYMXDLY={MNTYMXDLY} IO_LEVEL={IO_LEVEL} 
.ends
*
.model D_ALS15A ugate (
+	tplhmn=20ns	tplhmx=45ns
+	tphlmn=6ns	tphlmx=20ns
+	)
*$
*---------
* 74ALS20A  Dual 4-input Positive-Nand Gates
*
* The ALS/AS Data Book, 1986, TI
* tdn 	06/26/89	Update interface and model names
*
.subckt 74ALS20A  A B C D Y
+	optional: DPWR=$G_DPWR DGND=$G_DGND
+	params: MNTYMXDLY=0 IO_LEVEL=0
U1 nand(4) DPWR DGND
+	A B C D   Y 
+	D_ALS20A IO_ALS00 MNTYMXDLY={MNTYMXDLY} IO_LEVEL={IO_LEVEL} 
.ends
*
.model D_ALS20A ugate (
+	tplhty=7ns	tphlty=6ns
+	tplhmn=3ns	tplhmx=11ns
+	tphlmn=3ns	tphlmx=10ns
+	)
*$
*---------
* 74ALS21A  Dual 4-input Positive-And Gates   
*
* The ALS/AS Data Book, 1986, TI
* tdn 	06/26/89	Update interface and model names
*
.subckt 74ALS21A  A B C D Y
+	optional: DPWR=$G_DPWR DGND=$G_DGND
+	params: MNTYMXDLY=0 IO_LEVEL=0
U1 and(4) DPWR DGND
+	A B C D   Y 
+	D_ALS21A IO_ALS00 MNTYMXDLY={MNTYMXDLY} IO_LEVEL={IO_LEVEL} 
.ends
*
.model D_ALS21A ugate (
+	tplhty=8.3ns	tphlty=6.5ns
+	tplhmn=4ns	tplhmx=15ns
+	tphlmn=2ns	tphlmx=10ns
+	)
*$
*---------
* 74ALS22B  Dual 4-input Positive-Nand Gates with Open-Collector Outputs
*
* The ALS/AS Data Book, 1986, TI
* tdn 	06/26/89	Update interface and model names
*
.subckt 74ALS22B  A B C D Y
+	optional: DPWR=$G_DPWR DGND=$G_DGND
+	params: MNTYMXDLY=0 IO_LEVEL=0
U1 nand(4) DPWR DGND
+	A B C D   Y 
+	D_ALS22B IO_ALS00_OC MNTYMXDLY={MNTYMXDLY} IO_LEVEL={IO_LEVEL} 
.ends
*
.model D_ALS22B ugate (
+	tplhty=35ns	tphlty=8ns
+	tplhmn=23ns	tplhmx=45ns
+	tphlmn=4ns	tphlmx=18ns
+	)
*$
*---------
* 74ALS27  Triple 3-input Positive-Nor Gates
*
* The ALS/AS Data Book, 1986, TI
* tdn	06/26/89	Update interface and model names
*
.subckt 74ALS27  A B C Y
+	optional: DPWR=$G_DPWR DGND=$G_DGND
+	params: MNTYMXDLY=0 IO_LEVEL=0
U1 nor(3) DPWR DGND
+	A B C   Y 
+	D_ALS27 IO_ALS00 MNTYMXDLY={MNTYMXDLY} IO_LEVEL={IO_LEVEL} 
.ends
*
.model D_ALS27 ugate (
+	tplhmn=4ns	tplhmx=15ns
+	tphlmn=3ns	tphlmx=9ns
+	)
*$
*---------
* 74ALS28A  Quadruple 2-input Positive-Nor Buffers
*
* The ALS/AS Data Book, 1986, TI
* tdn 	06/26/89	Update interface and model names
*
.subckt 74ALS28A  A B Y
+	optional: DPWR=$G_DPWR DGND=$G_DGND
+	params: MNTYMXDLY=0 IO_LEVEL=0
U1 nor(2) DPWR DGND
+	A B   Y 
+	D_ALS28A IO_ALS00 MNTYMXDLY={MNTYMXDLY} IO_LEVEL={IO_LEVEL} 
.ends
*
.model D_ALS28A ugate (
+	tplhty=4ns	tphlty=4ns
+	tplhmn=2ns	tplhmx=8ns
+	tphlmn=2ns	tphlmx=7ns
+	)
*$
*---------
* 74ALS30A  8-input Positive-Nand Gates
*
* The ALS/AS Data Book, 1986, TI
* tdn 	06/26/89	Update interface and model names
*
.subckt 74ALS30A  A B C D E F G H Y
+	optional: DPWR=$G_DPWR DGND=$G_DGND
+	params: MNTYMXDLY=0 IO_LEVEL=0
U1 nand(8) DPWR DGND
+	A B C D E F G H   Y 
+	D_ALS30A IO_ALS00 MNTYMXDLY={MNTYMXDLY} IO_LEVEL={IO_LEVEL} 
.ends
*
.model D_ALS30A ugate (
+	tplhmn=3ns	tplhmx=10ns
+	tphlmn=3ns	tphlmx=12ns
+	)
*$
*---------
* 74ALS32  Quadruple 2-input Positive-Or Gates
*
* The ALS/AS Data Book, 1986, TI
* tdn 	06/26/89	Update interface and model names
*
.subckt 74ALS32  A B Y
+	optional: DPWR=$G_DPWR DGND=$G_DGND
+	params: MNTYMXDLY=0 IO_LEVEL=0
U1 or(2) DPWR DGND
+	A B   Y 
+	D_ALS32 IO_ALS00 MNTYMXDLY={MNTYMXDLY} IO_LEVEL={IO_LEVEL} 
.ends
*
.model D_ALS32 ugate (
+	tplhty=8.8ns	tphlty=6.8ns
+	tplhmn=3ns	tplhmx=14ns
+	tphlmn=3ns	tphlmx=12ns
+	)
*$
*---------
* 74ALS33A  Quadruple 2-input Positive-Nor Buffers w/ Open-Collector Outputs
*
* The ALS/AS Data Book, 1986, TI
* tdn 	06/26/89	Update interface and model names
*
.subckt 74ALS33A  A B Y
+	optional: DPWR=$G_DPWR DGND=$G_DGND
+	params: MNTYMXDLY=0 IO_LEVEL=0
U1 nor(2) DPWR DGND
+	A B   Y 
+	D_ALS33A IO_ALS00_OC MNTYMXDLY={MNTYMXDLY} IO_LEVEL={IO_LEVEL} 
.ends
*
.model D_ALS33A ugate (
+	tplhty=18ns	tphlty=7ns
+	tplhmn=10ns	tplhmx=33ns
+	tphlmn=2ns	tphlmx=12ns
+	)
*$
*-------------------------------------------------------------------------
* 74ALS34  Hex Noninverters
*
* The ALS/AS Data Book, 1986, TI
* tdn 	06/26/89	Update interface and model names
*
.subckt 74ALS34  A Y
+	optional: DPWR=$G_DPWR DGND=$G_DGND
+	params: MNTYMXDLY=0 IO_LEVEL=0
U1 buf DPWR DGND
+	A   Y 
+	D_ALS34 IO_ALS00 MNTYMXDLY={MNTYMXDLY} IO_LEVEL={IO_LEVEL} 
.ends
*
.model D_ALS34 ugate (
+	tplhty=9.4ns	tphlty=5ns
+	tplhmn=4ns	tplhmx=15ns
+	tphlmn=1ns	tphlmx=10ns
+	)
*$
*-------------------------------------------------------------------------
* 74ALS35A  Hex Noninverters with Open-Collector Outputs
*
* The ALS/AS Data Book, 1986, TI
* tdn 	06/26/89	Update interface and model names
*
.subckt 74ALS35A  A Y
+	optional: DPWR=$G_DPWR DGND=$G_DGND
+	params: MNTYMXDLY=0 IO_LEVEL=0
U1 buf DPWR DGND
+	A   Y 
+	D_ALS35A IO_ALS00_OC MNTYMXDLY={MNTYMXDLY} IO_LEVEL={IO_LEVEL} 
.ends
*
.model D_ALS35A ugate (
+	tplhty=34ns	tphlty=9ns
+	tplhmn=20ns	tplhmx=50ns
+	tphlmn=2ns	tphlmx=14ns
+	)
*$
*---------
* 74ALS37A  Quadruple 2-input Positive-Nand Buffers
*
* The ALS/AS Data Book, 1986, TI
* tdn 	06/26/89	Update interface and model names
*
.subckt 74ALS37A  A B Y
+	optional: DPWR=$G_DPWR DGND=$G_DGND
+	params: MNTYMXDLY=0 IO_LEVEL=0
U1 nand(2) DPWR DGND
+	A B   Y 
+	D_ALS37A IO_ALS00 MNTYMXDLY={MNTYMXDLY} IO_LEVEL={IO_LEVEL} 
.ends
*
.model D_ALS37A ugate (
+	tplhty=4ns	tphlty=5ns
+	tplhmn=2ns	tplhmx=8ns
+	tphlmn=2ns	tphlmx=7ns
+	)
*$
*---------
* 74ALS38A  Quadruple 2-input Positive-Nand Buffers w/ Open-Collector Outputs
*
* The ALS/AS Data Book, 1986, TI
* tdn 	06/26/89	Update interface and model names
*
.subckt 74ALS38A  A B Y
+	optional: DPWR=$G_DPWR DGND=$G_DGND
+	params: MNTYMXDLY=0 IO_LEVEL=0
U1 nand(2) DPWR DGND
+	A B   Y 
+	D_ALS38A IO_ALS00_OC MNTYMXDLY={MNTYMXDLY} IO_LEVEL={IO_LEVEL} 
.ends
*
.model D_ALS38A ugate (
+	tplhty=18ns	tphlty=7ns
+	tplhmn=10ns	tplhmx=33ns
+	tphlmn=2ns	tphlmx=12ns
+	)
*$
*---------
* 74ALS40A  Dual 4-input Positive-Nand Buffers
*
* The ALS/AS Data Book, 1986, TI
* tdn 	06/26/89	Update interface and model names
*
.subckt 74ALS40A  A B C D Y
+	optional: DPWR=$G_DPWR DGND=$G_DGND
+	params: MNTYMXDLY=0 IO_LEVEL=0
U1 nand(4) DPWR DGND
+	A B C D   Y 
+	D_ALS40A IO_ALS00 MNTYMXDLY={MNTYMXDLY} IO_LEVEL={IO_LEVEL} 
.ends
*
.model D_ALS40A ugate (
+	tplhty=5ns	tphlty=5ns
+	tplhmn=2ns	tplhmx=8ns
+	tphlmn=2ns	tphlmx=7ns
+	)
*$
*---------
* 74ALS74A  Dual D-Type Positive-Edge-Triggered Flip-Flops w/ Preset & Clear
*
* The ALS/AS Data Book, 1986, TI
* tdn	06/28/89	Update interface and model names
*
.subckt 74ALS74A  1CLRBAR 1D 1CLK 1PREBAR 1Q 1QBAR
+	optional: DPWR=$G_DPWR DGND=$G_DGND
+	params: MNTYMXDLY=0 IO_LEVEL=0
UFF1 dff(1) DPWR DGND
+	1PREBAR 1CLRBAR 1CLK   1D   1Q 1QBAR 
+	D_ALS74A IO_ALS00 MNTYMXDLY={MNTYMXDLY} IO_LEVEL={IO_LEVEL} 
.ends
*
.model D_ALS74A ueff (
+	twpclmn=15ns	twclklmn=14.5ns
+	twclkhmn=14.5ns	tsudclkmn=15ns
+	tsupcclkhmn=10ns	thdclkmn=0ns
+	tppcqlhmn=3ns	tppcqlhmx=13ns
+	tppcqhlmn=5ns	tppcqhlmx=15ns
+	tpclkqlhmn=5ns	tpclkqlhmx=16ns
+	tpclkqhlmn=5ns	tpclkqhlmx=18ns
+	)
*$
*---------
* 74ALS86  Quadruple 2-input Exclusive-Or Gates
*
* The ALS/AS Data Book, 1986, TI
* tdn	06/29/89	Update interface and model names
*
.subckt 74ALS86  A B Y
+	optional: DPWR=$G_DPWR DGND=$G_DGND
+	params: MNTYMXDLY=0 IO_LEVEL=0
UIBUF bufa(2) DPWR DGND
+	A B   A_BUF B_BUF 
+	D0_GATE IO_ALS00 IO_LEVEL={IO_LEVEL} 
U1 or(2) DPWR DGND
+	A_BUF B_BUF   C 
+	D_ALS86_1 IO_ALS00 MNTYMXDLY={MNTYMXDLY} 
U2 nand(2) DPWR DGND
+	A_BUF B_BUF   D 
+	D_ALS86_2 IO_ALS00 MNTYMXDLY={MNTYMXDLY} 
U3 and(2) DPWR DGND
+	C D   Y 
+	D_ALS86_3 IO_ALS00 MNTYMXDLY={MNTYMXDLY} IO_LEVEL={IO_LEVEL} 
.ends
*
.model D_ALS86_1 ugate (
+	tplhmn=1ns	tplhmx=15ns
+	tphlmn=0ns	tphlmx=10ns
+	)
.model D_ALS86_2 ugate (
+	tplhmn=1ns	tplhmx=15ns
+	tphlmn=0ns	tphlmx=8ns
+	)
.model D_ALS86_3 ugate (
+	tplhmn=2ns	tplhmx=2ns
+	tphlmn=2ns	tphlmx=2ns
+	)
*$
*---------
* 74ALS109A  Dual J-KBar Positive-Edge-Triggered Flip-Flops w/ Set & Reset    
*
* Philips Components, 1989
* cv	08/20/90	Created from LS
*
.subckt 74ALS109A  CP SDBAR RDBAR J KBAR Q QBAR
+	optional: DPWR=$G_DPWR DGND=$G_DGND
+	params: MNTYMXDLY=0 IO_LEVEL=0
U1 jkff(1) DPWR DGND
+	SDBAR RDBAR CPBAR   J K   Q QBAR 
+	D_ALS109A IO_ALS00 MNTYMXDLY={MNTYMXDLY} IO_LEVEL={IO_LEVEL} 
U2 inva(2) DPWR DGND
+	KBAR CP   K CPBAR 
+	D0_GATE IO_ALS00 IO_LEVEL={IO_LEVEL} 
.ends
*
.model D_ALS109A ueff (
+	tppcqlhmn=1ns	tppcqlhmx=8ns
+	tppcqhlmn=3ns	tppcqhlmx=10ns
+	tpclkqlhmn=3ns	tpclkqlhmx=14ns
+	tpclkqhlmn=3ns	tpclkqhlmx=14ns
+	twclkhmn=6ns	twclklmn=6ns
+	twpclmn=6ns	tsudclkmn=6ns
+	tsupcclkhmn=6ns	thdclkmn=0ns
+	)
*$
*---------
* 74ALS112A  Dual J-K Negative-Edge-Triggered Flip-Flops with Set & Reset
*
* Philips Components, 1989
* cv	08/20/90	Created from LS
*
*
.subckt 74ALS112A  CP SDBAR RDBAR J K Q QBAR
+	optional: DPWR=$G_DPWR DGND=$G_DGND
+	params: MNTYMXDLY=0 IO_LEVEL=0
U1 jkff(1) DPWR DGND
+	SDBAR RDBAR CP   J K   Q QBAR 
+	D_ALS112A IO_ALS00 MNTYMXDLY={MNTYMXDLY} IO_LEVEL={IO_LEVEL} 
.ends
*
.model D_ALS112A ueff (
+	tppcqlhmn=3ns	tppcqlhmx=15ns
+	tppcqhlmn=4ns	tppcqhlmx=18ns
+	tpclkqlhmn=3ns	tpclkqlhmx=15ns
+	tpclkqhlmn=5ns	tpclkqhlmx=19ns
+	twclkhmn=16.5ns	twclkhmx=16.5ns
+	twclklmx=16.5ns	twclklmn=16.5ns
+	twpclmx=10ns	twpclmn=10ns
+	tsudclkmx=22ns	tsudclkmn=22ns
+	tsupcclkhmx=20ns	tsupcclkhmn=20ns
+	thdclkmn=0ns	thdclkmx=0ns
+	)
*$
*-------------------------------------------------------------------------
* 74ALS133  13-input Positive-Nand Gates
*
* The ALS/AS Data Book, 1986, TI
* tdn	07/05/89	Update interface and model names
*
.subckt 74ALS133  A B C D E F G H I J K L M Y
+	optional: DPWR=$G_DPWR DGND=$G_DGND
+	params: MNTYMXDLY=0 IO_LEVEL=0
U1 nand(13) DPWR DGND
+	A	B	C	D	E	F	G	H	I
+	J	K	L	M
+	Y
+	D_ALS133 IO_ALS00 MNTYMXDLY={MNTYMXDLY} IO_LEVEL={IO_LEVEL} 
.ends
*
.model D_ALS133 ugate (
+	tplhty=8ns	tphlty=17ns
+	tplhmn=3ns	tplhmx=11ns
+	tphlmn=5ns	tphlmx=25ns
+	)
*$
*---------
* 74ALS136  Quadruple 2-input Exclusive-Or Gates with Open-Collector Outputs
*
* The ALS/AS Data Book, 1986, TI
* tdn	07/05/89	Update interface and model names
*
.subckt 74ALS136  A B Y
+	optional: DPWR=$G_DPWR DGND=$G_DGND
+	params: MNTYMXDLY=0 IO_LEVEL=0
UIBUF bufa(2) DPWR DGND
+	A B   A_BUF B_BUF 
+	D0_GATE IO_ALS00 IO_LEVEL={IO_LEVEL} 
U1 or(2) DPWR DGND
+	A_BUF B_BUF   C 
+	D_ALS136_1 IO_ALS00 MNTYMXDLY={MNTYMXDLY} 
U2 nand(2) DPWR DGND
+	A_BUF B_BUF   D 
+	D_ALS136_2 IO_ALS00 MNTYMXDLY={MNTYMXDLY} 
U3 and(2) DPWR DGND
+	C D   Y 
+	D_ALS136_3 IO_ALS00_OC MNTYMXDLY={MNTYMXDLY} IO_LEVEL={IO_LEVEL} 
.ends 74ALS136
*
.model D_ALS136_1 ugate (
+	tplhmn=18ns	tplhmx=48ns
+	tphlmn=1ns	tphlmx=13ns
+	)
.model D_ALS136_2 ugate (
+	tplhmn=18ns	tplhmx=48ns
+	tphlmn=1ns	tphlmx=10ns
+	)
.model D_ALS136_3 ugate (
+	tplhmn=2ns	tplhmx=2ns
+	tphlmn=2ns	tphlmx=2ns
+	)
*$
*-------------------------------------------------------------------------
* 74ALS137  DECODER/DEMULTIPLEXER 3-8 LINE WITH ADDRESS LATCHES
*
* ALS/AS LOGIC CIRCUITS DATA BOOK, 1986, TI
* JLS   8-4-92   REMODELED USING LOGICEXP, PINDLY, AND CONSTRAINT DEVICES
*    
.SUBCKT 74ALS137   G1_I G2BAR_I GLBAR_I A_I B_I C_I
+ Y0_O Y1_O Y2_O Y3_O Y4_O Y5_O Y6_O Y7_O
+ OPTIONAL: DPWR=$G_DPWR DGND=$G_DGND
+ PARAMS: MNTYMXDLY=0 IO_LEVEL=0
*
U1 DLTCH(3) DPWR DGND
+ $D_HI $D_HI LATCHEN
+  A     B     C
+ QA    QB    QC
+ QABAR QBBAR QCBAR
+ D0_GFF  IO_ALS00
*
UALS137LOG LOGICEXP (12,16) DPWR DGND
+ G1_I G2BAR_I GLBAR_I A_I B_I C_I QA QB QC QABAR QBBAR QCBAR
+ G1   G2BAR   GLBAR   A   B   C   LATCHEN ENABLE
+ Y0 Y1 Y2 Y3 Y4 Y5 Y6 Y7
+ D0_GATE IO_ALS00
+ IO_LEVEL={IO_LEVEL}
+
+ LOGIC:
+   G1      = { G1_I }
+   G2BAR   = { G2BAR_I }
+   GLBAR   = { GLBAR_I }
+   A       = { A_I }
+   B       = { B_I }
+   C       = { C_I }
+   LATCHEN = { ~GLBAR }
+   ENABLE  = { G1 & ~G2BAR }
+   Y0      = { ~(ENABLE & QCBAR & QBBAR & QABAR) }
+   Y1      = { ~(ENABLE & QCBAR & QBBAR & QA   ) }
+   Y2      = { ~(ENABLE & QCBAR & QB    & QABAR) }
+   Y3      = { ~(ENABLE & QCBAR & QB    & QA   ) }
+   Y4      = { ~(ENABLE & QC    & QBBAR & QABAR) }
+   Y5      = { ~(ENABLE & QC    & QBBAR & QA   ) }
+   Y6      = { ~(ENABLE & QC    & QB    & QABAR) }
+   Y7      = { ~(ENABLE & QC    & QB    & QA   ) }
*
UALS137DLY PINDLY (8,0,7) DPWR DGND
+ Y0 Y1 Y2 Y3 Y4 Y5 Y6 Y7
+ G1 G2BAR GLBAR A B C ENABLE
+ Y0_O Y1_O Y2_O Y3_O Y4_O Y5_O Y6_O Y7_O
+ IO_ALS00
+ MNTYMXDLY={MNTYMXDLY} IO_LEVEL={IO_LEVEL}
+
+ BOOLEAN:
+   ABLE1 = { CHANGED(ENABLE,0) & CHANGED(G1,0) }
+   ABLE2 = { CHANGED(ENABLE,0) & CHANGED(G2BAR,0) }
+   ABLEL = { CHANGED(GLBAR,0) }
+   ADDR  = { CHANGED(A,0) | CHANGED(B,0) | CHANGED(C,0) }
+
+ PINDLY:
+   Y0_O Y1_O Y2_O Y3_O Y4_O Y5_O Y6_O Y7_O = {
+     CASE (
+       ABLE2 & TRN_LH, DELAY(4NS,-1,12NS),
+       ABLE1 & TRN_HL, DELAY(5NS,-1,15NS),
+       ABLE2 & TRN_HL, DELAY(5NS,-1,15NS),
+       ABLE1 & TRN_LH, DELAY(5NS,-1,17NS),
+       ADDR  & TRN_LH, DELAY(5NS,-1,20NS),
+       ADDR  & TRN_HL, DELAY(6NS,-1,20NS),
+       ABLEL & TRN_HL, DELAY(7NS,-1,20NS),
+       ABLEL & TRN_LH, DELAY(7NS,-1,22NS),
+       DELAY(7NS,-1,22NS)
+       )
+     }
+
+ WIDTH:
+   NODE      = GLBAR
+   MIN_LO    = 10NS
+ SETUP_HOLD:
+   DATA(3)   = A B C
+   CLOCK LH  = GLBAR
+   SETUPTIME = 10NS
+   HOLDTIME  =  5NS
*
.ENDS
*
*$
*---------
* 74ALS138  DECODER/DEMULTIPLEXER 3-8 LINE
*
* ALS/AS LOGIC CIRCUITS DATA BOOK, 1986, TI
* JLS   8-4-92   REMODELED USING LOGICEXP, PINDLY, AND CONSTRAINT DEVICES
*    
.SUBCKT 74ALS138   G1_I G2ABAR_I G2BBAR_I A_I B_I C_I
+ Y0_O Y1_O Y2_O Y3_O Y4_O Y5_O Y6_O Y7_O
+ OPTIONAL: DPWR=$G_DPWR DGND=$G_DGND
+ PARAMS: MNTYMXDLY=0 IO_LEVEL=0
*
UALS138LOG LOGICEXP (6,12) DPWR DGND
+ G1_I G2ABAR_I G2BBAR_I  A_I  B_I  C_I
+                         A    B    C   ENABLE
+ Y0 Y1 Y2 Y3 Y4 Y5 Y6 Y7
+ D0_GATE IO_ALS00
+ IO_LEVEL={IO_LEVEL}
+
+ LOGIC:
+   G1     = { G1_I }
+   G2ABAR = { G2ABAR_I }
+   G2BBAR = { G2BBAR_I }
+   A      = { A_I }
+   B      = { B_I }
+   C      = { C_I }
+   ABAR   = { ~A }
+   BBAR   = { ~B }
+   CBAR   = { ~C }
+   ENABLE = { ~G2ABAR & ~G2BBAR & G1 }
+   Y0     = { ~(ENABLE & CBAR & BBAR & ABAR) }
+   Y1     = { ~(ENABLE & CBAR & BBAR & A   ) }
+   Y2     = { ~(ENABLE & CBAR & B    & ABAR) }
+   Y3     = { ~(ENABLE & CBAR & B    & A   ) }
+   Y4     = { ~(ENABLE & C    & BBAR & ABAR) }
+   Y5     = { ~(ENABLE & C    & BBAR & A   ) }
+   Y6     = { ~(ENABLE & C    & B    & ABAR) }
+   Y7     = { ~(ENABLE & C    & B    & A   ) }
*
UALS138DLY PINDLY (8,0,4) DPWR DGND
+ Y0 Y1 Y2 Y3 Y4 Y5 Y6 Y7
+ ENABLE A B C
+ Y0_O Y1_O Y2_O Y3_O Y4_O Y5_O Y6_O Y7_O
+ IO_ALS00
+ MNTYMXDLY={MNTYMXDLY} IO_LEVEL={IO_LEVEL}
+
+ BOOLEAN:
+   ABLE   = { CHANGED(ENABLE,0) }
+   ADDR   = { CHANGED(A,0) | CHANGED(B,0) | CHANGED(C,0) }
+
+ PINDLY:
+   Y0_O Y1_O Y2_O Y3_O Y4_O Y5_O Y6_O Y7_O = {
+     CASE (
+       ABLE & TRN_LH, DELAY(4NS,-1,17NS),
+       ABLE & TRN_HL, DELAY(5NS,-1,17NS),
+       ADDR & TRN_HL, DELAY(6NS,-1,18NS),
+       ADDR & TRN_LH, DELAY(6NS,-1,22NS),
+       DELAY(6NS,-1,22NS)
+       )
+     }
*
.ENDS
*
*$
*--------
* 74ALS139  DECODER/DEMULTIPLEXER 2-4 LINE
*
* ALS/AS LOGIC CIRCUITS DATA BOOK, 1986, TI
* JLS   8-1-92   REMODELED USING LOGICEXP, PINDLY, AND CONSTRAINT DEVICES
*    
.SUBCKT 74ALS139   GBAR_I A_I B_I   Y0_O Y1_O Y2_O Y3_O
+ OPTIONAL: DPWR=$G_DPWR DGND=$G_DGND
+ PARAMS: MNTYMXDLY=0 IO_LEVEL=0
*
UALS139LOG LOGICEXP (3,7) DPWR DGND
+ GBAR_I A_I B_I
+ GBAR   A   B
+ Y0 Y1 Y2 Y3
+ D0_GATE IO_ALS00
+ IO_LEVEL={IO_LEVEL}
+
+ LOGIC:
+   GBAR   = { GBAR_I }
+   A      = { A_I }
+   B      = { B_I }
+   ABAR   = { ~A }
+   BBAR   = { ~B }
+   ENABLE = { ~GBAR }
+   Y0     = { ~(ENABLE & BBAR & ABAR ) }
+   Y1     = { ~(ENABLE & BBAR & A    ) }
+   Y2     = { ~(ENABLE & B    & ABAR ) }
+   Y3     = { ~(ENABLE & B    & A    ) }
*
UALS139DLY PINDLY (4,0,3) DPWR DGND
+ Y0 Y1 Y2 Y3
+ GBAR A B
+ Y0_O Y1_O Y2_O Y3_O
+ IO_ALS00
+ MNTYMXDLY={MNTYMXDLY} IO_LEVEL={IO_LEVEL}
+
+ BOOLEAN:
+   ABLE = { CHANGED(GBAR,0) }
+   ADDR = { CHANGED(A,0) | CHANGED(B,0) }
+
+ PINDLY:
+   Y0_O Y1_O Y2_O Y3_O = {
+     CASE (
+              TRN_LH, DELAY(3NS,9NS,14NS),
+       ADDR         , DELAY(3NS,9NS,14NS),
+       ABLE & TRN_HL, DELAY(3NS,9NS,15NS),
+       DELAY(3NS,9NS,15NS)
+       )
+     }
*    
.ENDS
*
*$
*---------
* 74ALS151  MULTIPLEXER/DATA SELECTOR 8-1 LINE
*
* ALS/AS LOGIC CIRCUITS DATA BOOK, 1986, TI
* TC  08/21/92  REMODELED USING LOGICEXP, PINDLY, & CONSTRAINT DEVICES
*
.SUBCKT 74ALS151 GBAR_I A_I B_I C_I D0_I D1_I D2_I D3_I D4_I D5_I D6_I D7_I
+ Y_O W_O
+ OPTIONAL: DPWR=$G_DPWR DGND=$G_DGND
+ PARAMS: MNTYMXDLY=0 IO_LEVEL=0
*
UALS151LOG LOGICEXP(12,14) DPWR DGND
+ GBAR_I A_I B_I C_I D0_I D1_I D2_I D3_I D4_I D5_I D6_I D7_I
+ GBAR A B C D0 D1 D2 D3 D4 D5 D6 D7 W Y
+ D0_GATE IO_ALS00 IO_LEVEL={IO_LEVEL}
+ LOGIC:
+   GBAR = { GBAR_I }
+   A = { A_I }
+   B = { B_I }
+   C = { C_I }
+   D0 = { D0_I }
+   D1 = { D1_I }
+   D2 = { D2_I }
+   D3 = { D3_I }
+   D4 = { D4_I }
+   D5 = { D5_I }
+   D6 = { D6_I }
+   D7 = { D7_I }
+   IA = { ~A }
+   IB = { ~B }
+   IC = { ~C }
+   IG = { ~GBAR }
+   ID0 = { D0 & IA & IB & IC & IG }
+   ID1 = { D1 & A & IB & IC & IG }
+   ID2 = { D2 & IA & B & IC & IG }
+   ID3 = { D3 & A & B & IC & IG }
+   ID4 = { D4 & IA & IB & C & IG }
+   ID5 = { D5 & A & IB & C & IG }
+   ID6 = { D6 & IA & B & C & IG }
+   ID7 = { D7 & A & B & C & IG }
+   W = { ~(ID0 | ID1 | ID2 | ID3 | ID4 | ID5 | ID6 | ID7) }
+   Y = { ~W }
*
UALS151DLY PINDLY (2,0,12) DPWR DGND
+ W Y
+ GBAR A B C D0 D1 D2 D3 D4 D5 D6 D7
+ W_O Y_O
+ IO_ALS00 MNTYMXDLY={MNTYMXDLY} IO_LEVEL={IO_LEVEL}
+ BOOLEAN:
+   DATA = { CHANGED(D0,0) | CHANGED(D1,0) | CHANGED(D2,0) | CHANGED(D3,0) |
+     CHANGED(D4,0) | CHANGED(D5,0) | CHANGED(D6,0) | CHANGED(D7,0) }
+   SELECT = { CHANGED(A,0) | CHANGED(B,0) | CHANGED(C,0) }
+   ENABLE = { CHANGED(GBAR,0) }
+ PINDLY:
+   Y_O = {
+     CASE(
+       SELECT & TRN_HL, DELAY(8NS,-1,24NS),
+       ENABLE & TRN_HL, DELAY(4NS,-1,19NS),
+       ENABLE & TRN_LH, DELAY(4NS,-1,18NS),
+       SELECT & TRN_LH, DELAY(4NS,-1,18NS),
+       DATA & TRN_HL, DELAY(5NS,-1,15NS),
+       DATA & TRN_LH, DELAY(3NS,-1,10NS),
+       DELAY(9NS,-1,25NS)
+       )
+     }
+   W_O = {
+     CASE(
+       SELECT & TRN_LH, DELAY(7NS,-1,24NS),
+       SELECT & TRN_HL, DELAY(7NS,-1,23NS),
+       ENABLE & TRN_HL, DELAY(5NS,-1,23NS),
+       ENABLE & TRN_LH, DELAY(5NS,-1,19NS),
+       DATA & TRN_HL, DELAY(4NS,-1,15NS),
+       DATA & TRN_LH, DELAY(3NS,-1,15NS),
+       DELAY(8NS,-1,25NS)
+       )
+     }
*
.ENDS
*
*$
*---------
* 74ALS153  DUAL 4-LINE TO 1-LINE DATA SELECTORS/MULTIPLEXERS
*
* The ALS/AS Data Book, 1986, TI
* JSW   8/12/92   Remodeled using LOGICEXP, PINDLY, & CONSTRAINT devices
*
.SUBCKT 74ALS153 G1BAR_I G2BAR_I A_I B_I 1C0_I 1C1_I 1C2_I  1C3_I
+ 2C0_I 2C1_I 2C2_I 2C3_I Y1_O Y2_O
+ OPTIONAL: DPWR=$G_DPWR DGND=$G_DGND
+ PARAMS: MNTYMXDLY=0 IO_LEVEL=0
*
UALS153LOG LOGICEXP(12,14) DPWR DGND
+ G1BAR_I G2BAR_I A_I B_I 1C0_I 1C1_I 1C2_I 1C3_I 2C0_I 2C1_I 2C2_I 2C3_I
+ G1BAR G2BAR A B 1C0 1C1 1C2  1C3 2C0 2C1 2C2 2C3 Y1 Y2
+ D0_GATE IO_ALS00 IO_LEVEL={IO_LEVEL}
+ LOGIC:
+   G1BAR = { G1BAR_I }
+   G2BAR = { G2BAR_I }
+   A = { A_I }
+   B = { B_I }
+   1C0 = { 1C0_I }
+   1C1 = { 1C1_I }
+   1C2 = { 1C2_I }
+   1C3 = { 1C3_I }
+   2C0 = { 2C0_I }
+   2C1 = { 2C1_I }
+   2C2 = { 2C2_I }
+   2C3 = { 2C3_I }
+   G1 = { ~G1BAR }
+   G2 = { ~G2BAR }
+   ABAR = { ~A }
+   BBAR = { ~B }
+   I0 = { G1 & BBAR & ABAR & 1C0 }
+   I1 = { G1 & BBAR & A    & 1C1 }
+   I2 = { G1 & B    & ABAR & 1C2 }
+   I3 = { G1 & B    & A    & 1C3 }
+   I4 = { G2 & BBAR & ABAR & 2C0 }
+   I5 = { G2 & BBAR & A    & 2C1 }
+   I6 = { G2 & B    & ABAR & 2C2 }
+   I7 = { G2 & B    & A    & 2C3 }
+   Y1 = { I0 | I1 | I2 | I3 }
+   Y2 = { I4 | I5 | I6 | I7 }
*
UALS153DLY PINDLY (2,0,12) DPWR DGND
+ Y1 Y2
+ G1BAR G2BAR A B 1C0 1C1 1C2 1C3 2C0 2C1 2C2 2C3
+ Y1_O Y2_O
+ IO_ALS00
+ MNTYMXDLY = {MNTYMXDLY} IO_LEVEL = {IO_LEVEL}
+ BOOLEAN:
+   DATA1 = { (CHANGED(1C0,0) | CHANGED(1C1,0) | CHANGED(1C2,0) |
+     CHANGED(1C3,0)) }
+   DATA2 = { (CHANGED(2C0,0) | CHANGED(2C1,0) | CHANGED(2C2,0) |
+     CHANGED(2C3,0)) }
+   SELECT = { CHANGED(A,0) | CHANGED(B,0) }
+ PINDLY:
+   Y1_O = {
+     CASE(
+       SELECT, DELAY(5NS,-1,21NS),
+       CHANGED(G1BAR,0), DELAY(5NS,-1,18NS),
+       DATA1 & TRN_HL, DELAY(4NS,-1,15NS),
+       DATA1 & TRN_LH, DELAY(3NS,-1,10NS),
+       DELAY(6NS,-1,22NS)
+       )
+     }
+   Y2_O = {
+     CASE(
+       SELECT, DELAY(5NS,-1,21NS),
+       CHANGED(G2BAR,0), DELAY(5NS,-1,18NS),
+       DATA2 & TRN_HL, DELAY(4NS,-1,15NS),
+       DATA2 & TRN_LH, DELAY(3NS,-1,10NS),
+       DELAY(6NS,-1,22NS)
+       )
+     }
*
.ENDS
*
*$
*---------
* 74ALS156  DECODER/DEMULTIPLEXER 2-4 LINE WITH OPEN COLLECTOR OUTPUTS
*
* ALS/AS LOGIC CIRCUITS DATA BOOK, 1986, TI
* JLS   7-30-92   REMODELED USING LOGICEXP, PINDLY, AND CONSTRAINT DEVICES
*
.SUBCKT 74ALS156   G1BAR_I G2BAR_I A_I B_I C1_I C2BAR_I
+ 1Y0_O 1Y1_O 1Y2_O 1Y3_O 2Y0_O 2Y1_O 2Y2_O 2Y3_O
+ OPTIONAL: DPWR=$G_DPWR DGND=$G_DGND
+ PARAMS: MNTYMXDLY=0 IO_LEVEL=0
*
UALS156LOG LOGICEXP (6,14) DPWR DGND
+ G1BAR_I G2BAR_I A_I B_I C1_I C2BAR_I
+ G1BAR           A   B   C1           ENABLE1 ENABLE2
+ 1Y0 1Y1 1Y2 1Y3 2Y0 2Y1 2Y2 2Y3
+ D0_GATE IO_ALS00
+ IO_LEVEL={IO_LEVEL}
+
+ LOGIC:
+   G1BAR   = { G1BAR_I }
+   G2BAR   = { G2BAR_I }
+   A       = { A_I }
+   B       = { B_I }
+   C1      = { C1_I }
+   C2BAR   = { C2BAR_I }
+   ABAR    = { ~A }
+   BBAR    = { ~B }
+   ENABLE1 = { ~G1BAR &  C1 }
+   ENABLE2 = { ~G2BAR & ~C2BAR }
+
+   1Y0     = { ~(ENABLE1 & BBAR & ABAR) }
+   1Y1     = { ~(ENABLE1 & BBAR & A   ) }
+   1Y2     = { ~(ENABLE1 & B    & ABAR) }
+   1Y3     = { ~(ENABLE1 & B    & A   ) }
+
+   2Y0     = { ~(ENABLE2 & BBAR & ABAR) }
+   2Y1     = { ~(ENABLE2 & BBAR & A   ) }
+   2Y2     = { ~(ENABLE2 & B    & ABAR) }
+   2Y3     = { ~(ENABLE2 & B    & A   ) }
*
UALS156DLY PINDLY (8,0,6) DPWR DGND
+ 1Y0 1Y1 1Y2 1Y3 2Y0 2Y1 2Y2 2Y3
+ G1BAR A B C1 ENABLE1 ENABLE2
+ 1Y0_O 1Y1_O 1Y2_O 1Y3_O 2Y0_O 2Y1_O 2Y2_O 2Y3_O
+ IO_ALS00_OC
+ MNTYMXDLY={MNTYMXDLY} IO_LEVEL={IO_LEVEL}
+
+ BOOLEAN:
+   ABLE1  = { CHANGED(G1BAR,0) & CHANGED(ENABLE1,0) }
+   ABLE2  = { CHANGED(ENABLE2,0) }
+   ADDR   = { CHANGED(A,0) | CHANGED(B,0) }
+   ADDRC1 = { CHANGED(C1,0) & CHANGED(ENABLE1,0) }
+
+ PINDLY:
+   1Y0_O 1Y1_O 1Y2_O 1Y3_O = {
+     CASE (
+       ABLE1  & TRN_LH, DELAY(13NS,24NS,38NS),
+       ABLE1  & TRN_HL, DELAY( 6NS,13NS,22NS),
+       ADDR   & TRN_LH, DELAY(13NS,30NS,55NS),
+       ADDR   & TRN_HL, DELAY( 6NS,12NS,25NS),
+       ADDRC1 & TRN_LH, DELAY(18NS,38NS,50NS),
+       ADDRC1 & TRN_HL, DELAY( 6NS,12NS,23NS),
+       DELAY(18NS,38NS,55NS)
+       )
+     }
+   2Y0_O 2Y1_O 2Y2_O 2Y3_O = {
+     CASE (
+       ABLE2  & TRN_LH, DELAY(13NS,24NS,38NS),
+       ABLE2  & TRN_HL, DELAY( 6NS,13NS,22NS),
+       ADDR   & TRN_LH, DELAY(13NS,30NS,55NS),
+       ADDR   & TRN_HL, DELAY( 6NS,12NS,25NS),
+       DELAY(13NS,30NS,55NS)
+       )
+     }
*
.ENDS
*
*$
*---------
* 74ALS157  QUADRUPLE 2-LINE TO 1-LINE DATA SELECTORS/MULTIPLEXERS
*
* The ALS/AS Data Book, 1986, TI
* JSW   8/25/92   Remodeled using LOGICEXP, PINDLY, & CONSTRAINT devices
*
.SUBCKT 74ALS157 GBAR_I 1A_I 1B_I 2A_I 2B_I 3A_I 3B_I 4A_I 4B_I SEL_I
+ Y1_O Y2_O Y3_O Y4_O
+ OPTIONAL: DPWR=$G_DPWR DGND=$G_DGND
+ PARAMS: MNTYMXDLY=0 IO_LEVEL=0
*
UALS157LOG LOGICEXP(10,14) DPWR DGND
+ GBAR_I 1A_I 1B_I 2A_I 2B_I 3A_I 3B_I 4A_I 4B_I SEL_I
+ GBAR 1A 1B 2A 2B 3A 3B 4A 4B SEL Y1 Y2 Y3 Y4
+ D0_GATE IO_ALS00 IO_LEVEL={IO_LEVEL}
+ LOGIC:
+   GBAR = { GBAR_I }
+   1A = { 1A_I }
+   1B = { 1B_I }
+   2A = { 2A_I }
+   2B = { 2B_I }
+   3A = { 3A_I }
+   3B = { 3B_I }
+   4A = { 4A_I }
+   4B = { 4B_I }
+   SEL = { SEL_I }
+   SEL1 = { ~GBAR & ~SEL }
+   SEL2 = { ~GBAR &  SEL }
+   Y1 = { (1A & SEL1) | (1B & SEL2) }
+   Y2 = { (2A & SEL1) | (2B & SEL2) }
+   Y3 = { (3A & SEL1) | (3B & SEL2) }
+   Y4 = { (4A & SEL1) | (4B & SEL2) }
*
UALS157DLY PINDLY (4,0,10) DPWR DGND
+ Y1 Y2 Y3 Y4
+ GBAR 1A 1B 2A 2B 3A 3B 4A 4B SEL
+ Y1_O Y2_O Y3_O Y4_O
+ IO_ALS00
+ MNTYMXDLY = {MNTYMXDLY} IO_LEVEL = {IO_LEVEL}
+ BOOLEAN:
+   DATA = { CHANGED(1A,0) | CHANGED(1B,0) | CHANGED(2A,0) | CHANGED(2B,0) |
+     CHANGED(3A,0) | CHANGED(3B,0) | CHANGED(4A,0) | CHANGED(4B,0) }
+   SELECT = { CHANGED(SEL,0) }
+   ENABLE = { CHANGED(GBAR,0) }
+ PINDLY:
+   Y1_O Y2_O Y3_O Y4_O = {
+     CASE(
+       SELECT & TRN_LH, DELAY(7NS,15NS,24NS),
+       ENABLE & TRN_LH, DELAY(7NS,14NS,20NS),
+       DATA & TRN_LH, DELAY(4NS,9NS,14NS),
+       ENABLE & TRN_HL, DELAY(4NS,10NS,13NS),
+       SELECT & TRN_HL, DELAY(4NS,9NS,13NS),
+       DATA & TRN_HL, DELAY(2NS,6NS,12NS),
+       DELAY(8NS,16NS,25NS)
+       )
+     }
*
.ENDS
*
*$
*-------------------------------------------------------------------------
* 74ALS158  DUAL 4-LINE TO 1-LINE DATA SELECTORS/MULTIPLEXERS
*