* Library of 74AS Family Digital Models
*
*  Copyright OrCAD, Inc. 1998 All Rights Reserved.
*
*
* $Revision:   1.3  $
* $Author:   RPEREZ  $
* $Date:   16 Apr 1998 14:23:28  $
*
*
*$
*---------
* 74AS00  Quadruple 2-input Positive-Nand Gates
*
* The ALS/AS Data Book, 1986, TI
* tdn   06/23/89	Update interface and model names
*
.subckt 74AS00  A B Y
+	optional: DPWR=$G_DPWR DGND=$G_DGND
+	params: MNTYMXDLY=0 IO_LEVEL=0
U1 nand(2) DPWR DGND
+	A B   Y 
+	D_AS00 IO_AS00 MNTYMXDLY={MNTYMXDLY} IO_LEVEL={IO_LEVEL} 
.ends
*
.model D_AS00 ugate (
+	tplhmn=1ns	tplhmx=4.5ns
+	tphlmn=1ns	tphlmx=4ns
+	)
*$
*---------
* 74AS02  Quadruple 2-input Positive-Nor Gates
*
* The ALS/AS Data Book, 1986, TI
* tdn	06/23/89	Update interface and model names
*
.subckt 74AS02  A B Y
+	optional: DPWR=$G_DPWR DGND=$G_DGND
+	params: MNTYMXDLY=0 IO_LEVEL=0
U1 nor(2) DPWR DGND
+	A B   Y 
+	D_02AS IO_AS00 MNTYMXDLY={MNTYMXDLY} IO_LEVEL={IO_LEVEL} 
.ends
*
.model D_02AS ugate (
+	tplhmn=1ns	tplhmx=4.5ns
+	tphlmn=1ns	tphlmx=4.5ns
+	)
*$
*---------
* 74AS04  Hex Inverters
*
* The ALS/AS Data Book, 1986, TI
* tdn	06/23/89	Update interface and model names
*
.subckt 74AS04  A Y
+	optional: DPWR=$G_DPWR DGND=$G_DGND
+	params: MNTYMXDLY=0 IO_LEVEL=0
U1 inv DPWR DGND
+	A   Y 
+	D_AS04 IO_AS00 MNTYMXDLY={MNTYMXDLY} IO_LEVEL={IO_LEVEL} 
.ends
*
.model D_AS04 ugate (
+	tplhmn=1ns	tplhmx=5ns
+	tphlmn=1ns	tphlmx=4ns
+	)
*$
*---------
* 74AS08  Quadruple 2-input Positive-And Gates
* 
* The ALS/AS Data Book, 1986, TI
* tdn 	06/23/89	Update interface and model names
*
.subckt 74AS08  A B Y
+	optional: DPWR=$G_DPWR DGND=$G_DGND
+	params: MNTYMXDLY=0 IO_LEVEL=0
U1 and(2) DPWR DGND
+	A B   Y 
+	D_AS08 IO_AS00 MNTYMXDLY={MNTYMXDLY} IO_LEVEL={IO_LEVEL} 
.ends
*
.model D_AS08 ugate (
+	tplhmn=1ns	tplhmx=5.5ns
+	tphlmn=1ns	tphlmx=5.5ns
+	)
*$
*---------
* 74AS10  Triple 3-input Positive-Nand Gates
*
* The ALS/AS Data Book, 1986, TI
* tdn	06/23/89	Update interface and model names
*
.subckt 74AS10  A B C Y
+	optional: DPWR=$G_DPWR DGND=$G_DGND
+	params: MNTYMXDLY=0 IO_LEVEL=0
U1 nand(3) DPWR DGND
+	A B C   Y 
+	D_AS10 IO_AS00 MNTYMXDLY={MNTYMXDLY} IO_LEVEL={IO_LEVEL} 
.ends
*
.model D_AS10 ugate (
+	tplhmn=1ns	tplhmx=4.5ns
+	tphlmn=1ns	tphlmx=4.5ns
+	)
*$
*---------
* 74AS11  Triple 3-input Positive-And Gates
*
* The ALS/AS Data Book, 1986, TI
* tdn	06/23/89	Update interface and model names
*
.subckt 74AS11  A B C Y
+	optional: DPWR=$G_DPWR DGND=$G_DGND
+	params: MNTYMXDLY=0 IO_LEVEL=0
U1 and(3) DPWR DGND
+	A B C   Y 
+	D_AS11 IO_AS00 MNTYMXDLY={MNTYMXDLY} IO_LEVEL={IO_LEVEL} 
.ends
*
.model D_AS11 ugate (
+	tplhmn=1ns	tplhmx=6ns
+	tphlmn=1ns	tphlmx=5.5ns
+	)
*$
*---------
* 74AS20  Dual 4-input Positive-Nand Gates
*
* The ALS/AS Data Book, 1986, TI
* tdn 	06/26/89	Update interface and model names
*
.subckt 74AS20  A B C D Y
+	optional: DPWR=$G_DPWR DGND=$G_DGND
+	params: MNTYMXDLY=0 IO_LEVEL=0
U1 nand(4) DPWR DGND
+	A B C D   Y 
+	D_AS20 IO_AS00 MNTYMXDLY={MNTYMXDLY} IO_LEVEL={IO_LEVEL} 
.ends
*
.model D_AS20 ugate (
+	tplhmn=1ns	tplhmx=5ns
+	tphlmn=1ns	tphlmx=4.5ns
+	)
*$
*---------
* 74AS21  Dual 4-input Positive-And Gates
*
* The ALS/AS Data Book, 1986, TI
* tdn 	06/26/89	Update interface and model names
*
.subckt 74AS21  A B C D Y
+	optional: DPWR=$G_DPWR DGND=$G_DGND
+	params: MNTYMXDLY=0 IO_LEVEL=0
U1 and(4) DPWR DGND
+	A B C D   Y 
+	D_AS21 IO_AS00 MNTYMXDLY={MNTYMXDLY} IO_LEVEL={IO_LEVEL} 
.ends
*
.model D_AS21 ugate (
+	tplhmn=1ns	tplhmx=6ns
+	tphlmn=1ns	tphlmx=6ns
+	)
*$
*---------
* 74AS27  Triple 3-input Positive-Nor Gates
*
* The ALS/AS Data Book, 1986, TI
* tdn 	06/26/89	Update interface and model names
*
.subckt 74AS27  A B C Y
+	optional: DPWR=$G_DPWR DGND=$G_DGND
+	params: MNTYMXDLY=0 IO_LEVEL=0
U1 nor(3) DPWR DGND
+	A B C   Y 
+	D_AS27 IO_AS00 MNTYMXDLY={MNTYMXDLY} IO_LEVEL={IO_LEVEL} 
.ends
*
.model D_AS27 ugate (
+	tplhmn=1ns	tplhmx=5.5ns
+	tphlmn=1ns	tphlmx=4.5ns
+	)
*$
*---------
* 74AS30  8-input Positive-Nand Gates
*
* The ALS/AS Data Book, 1986, TI
* tdn 	06/26/89	Update interface and model names
*
.subckt 74AS30  A B C D E F G H Y
+	optional: DPWR=$G_DPWR DGND=$G_DGND
+	params: MNTYMXDLY=0 IO_LEVEL=0
U1 nand(8) DPWR DGND
+	A B C D E F G H   Y 
+	D_AS30 IO_AS00 MNTYMXDLY={MNTYMXDLY} IO_LEVEL={IO_LEVEL} 
.ends
*
.model D_AS30 ugate (
+	tplhmn=1ns	tplhmx=5ns
+	tphlmn=1ns	tphlmx=4.5ns
+	)
*$
*---------
* 74AS32  Quadruple 2-input Positive-Or Gates
*
* The ALS/AS Data Book, 1986, TI
* tdn 	06/26/89	Update interface and model names
*
.subckt 74AS32  A B Y
+	optional: DPWR=$G_DPWR DGND=$G_DGND
+	params: MNTYMXDLY=0 IO_LEVEL=0
U1 or(2) DPWR DGND
+	A B   Y 
+	D_AS32 IO_AS00 MNTYMXDLY={MNTYMXDLY} IO_LEVEL={IO_LEVEL} 
.ends
*
.model D_AS32 ugate (
+	tplhmn=1ns	tplhmx=5.8ns
+	tphlmn=1ns	tphlmx=5.8ns
+	)
*$
*---------
* 74AS34  Hex Noninverters
*
* The ALS/AS Data Book, 1986, TI
* tdn 	06/26/89	Update interface and model names
*
.subckt 74AS34  A Y
+	optional: DPWR=$G_DPWR DGND=$G_DGND
+	params: MNTYMXDLY=0 IO_LEVEL=0
U1 buf DPWR DGND
+	A   Y 
+	D_AS34 IO_AS00 MNTYMXDLY={MNTYMXDLY} IO_LEVEL={IO_LEVEL} 
.ends
*
.model D_AS34 ugate (
+	tplhmn=1ns	tplhmx=5.5ns
+	tphlmn=1ns	tphlmx=6ns
+	)
*$
*---------
* 74AS74  Dual D-Type Positive-Edge-Triggered Flip-Flops w/ Preset & Clear
*
* The ALS/AS Data Book, 1986, TI
* tdn	06/28/89	Update interface and model names
*
.subckt 74AS74  1CLRBAR 1D 1CLK 1PREBAR 1Q 1QBAR
+	optional: DPWR=$G_DPWR DGND=$G_DGND
+	params: MNTYMXDLY=0 IO_LEVEL=0
UFF1 dff(1) DPWR DGND
+	1PREBAR 1CLRBAR 1CLK   1D   1Q 1QBAR 
+	D_AS74 IO_AS00 MNTYMXDLY={MNTYMXDLY} IO_LEVEL={IO_LEVEL} 
.ends
*
.model D_AS74 ueff (
+	twpclmn=4ns	twclklmn=5.5ns
+	twclkhmn=4ns	tsudclkmn=4.5ns
+	tsupcclkhmn=2ns	tppcqlhmn=3.00ns
+	tppcqlhmx=7.5ns	tppcqhlmn=3.50ns
+	tppcqhlmx=10.5ns	tpclkqlhmn=3.5ns
+	tpclkqlhmx=8ns	tpclkqhlmn=4.5ns
+	tpclkqhlmx=9ns
+	)
*$
*---------
* 74AS86  Quadruple 2-input Exclusive-Or Gates
*
* The ALS/AS Data Book, 1986, TI
* tdn	06/29/89	Update interface and model names
*
.subckt 74AS86  A B Y
+	optional: DPWR=$G_DPWR DGND=$G_DGND
+	params: MNTYMXDLY=0 IO_LEVEL=0
U1 xor DPWR DGND
+	A B   Y 
+	D_AS86 IO_AS00 MNTYMXDLY={MNTYMXDLY} IO_LEVEL={IO_LEVEL} 
.ends
*
.model D_AS86 ugate (
+	tplhty=3.6ns	tphlty=3.5ns
+	)
*$
*--------
* 74AS95  4-BIT PARALLEL SHIFT REGISTERS
*
* ALS/AS LOGIC CIRCUITS DATA BOOK, 1988, TI
* KN   7-3-92      REMODELED USING LOGICEXP, PINDLY, CONSTRAINT DEVICES
*
.SUBCKT 74AS95  MODE_I CLK1_I CLK2_I SER_I
+ A_I B_I C_I D_I QA_O QB_O QC_O QD_O
+ OPTIONAL: DPWR=$G_DPWR   DGND=$G_DGND
+ PARAMS:   MNTYMXDLY=0    IO_LEVEL=0
*
UAS95LOG LOGICEXP(11,13) DPWR DGND
+ MODE_I CLK1_I CLK2_I SER_I A_I B_I C_I D_I QA QB QC
+ MODE CLK1 CLK2 SER A B C D CLK DA DB DC DD
+ D0_GATE IO_AS00
+ IO_LEVEL={IO_LEVEL}
+ LOGIC:
+   MODE = { MODE_I }
+   CLK1 = { CLK1_I }
+   CLK2 = { CLK2_I }
+   SER = { SER_I }
+   A   = { A_I }
+   B   = { B_I }
+   C   = { C_I }
+   D   = { D_I }
+
* INTERMEDIATE TERM
+   MODEBAR = { ~MODE }
+
+   CLK = { ~((MODEBAR  & CLK1) | (MODE  & CLK2)) }
+   DA  = { (MODEBAR  & SER)    | (MODE  & A) }
+   DB  = { (MODEBAR  & QA) | (MODE  & B) }
+   DC  = { (MODEBAR  & QB) | (MODE  & C) }
+   DD  = { (MODEBAR  & QC) | (MODE  & D) }
*
U1 DFF(4) DPWR DGND $D_HI $D_HI CLK
+ DA DB DC DD QA QB QC QD
+ $D_NC  $D_NC $D_NC $D_NC
+ D0_EFF IO_AS00
*
UAS95DLY PINDLY (4,0,8) DPWR DGND
+ QA QB QC QD
+ CLK1 CLK2 MODE SER A B C D
+ QA_O QB_O QC_O QD_O
+ IO_AS00  MNTYMXDLY={MNTYMXDLY}  IO_LEVEL={IO_LEVEL}
+
+ BOOLEAN:
+    CLK = { CHANGED_HL(CLK1,0) | CHANGED_HL(CLK2,0) }
+
+ PINDLY:
+   QA_O QB_O QC_O QD_O = {
+     CASE(
+       CLK & TRN_LH,  DELAY(2NS,-1,10NS),
+       CLK & TRN_HL,  DELAY(2NS,-1,9.5NS),
+                      DELAY(3NS,-1,11NS)  ;DEFAULT
+       )
+     }
+
+ FREQ:
+   NODE = CLK1
+   MAXFREQ = 100MEG
+
+ FREQ:
+   NODE = CLK2
+   MAXFREQ = 100MEG
+
+ WIDTH:
+   NODE = CLK1
+   MIN_HI = 5NS
+   MIN_LO = 5NS
+
+ WIDTH:
+   NODE = CLK2
+   MIN_HI = 5NS
+   MIN_LO = 5NS
+
+ SETUP_HOLD:
+   DATA(4) A  B  C  D
+   CLOCK HL = CLK2
+   SETUPTIME = 2NS
+   HOLDTIME = 2.5NS
+   WHEN = { (MODE != '0 ^ CHANGED(MODE,0)) }
+
+ SETUP_HOLD:
+   DATA(1) SER
+   CLOCK HL = CLK1
+   SETUPTIME = 2NS
+   HOLDTIME = 2.5NS
+   WHEN = { (MODE != '1 ^ CHANGED(MODE,0)) }
+
+ SETUP_HOLD:          ; MODE HOLD TIME FOR CLK1
+   DATA(1) MODE
+   CLOCK HL = CLK1
+   HOLDTIME_LO = 3NS
+
+ SETUP_HOLD:          ; T_ENABLE1
+   DATA(1) MODE
+   CLOCK HL = CLK1
+   SETUPTIME_LO = 12NS
+   MESSAGE = "TENABLE1 IS NOT MET"
+
+ SETUP_HOLD:          ; T_ENABLE2
+   DATA(1) MODE
+   CLOCK HL = CLK2
+   SETUPTIME_HI = 12NS
+   MESSAGE = "TENABLE2 IS NOT MET"
+
+ SETUP_HOLD:          ; T_INHIBIT1
+   DATA(1) MODE
+   CLOCK LH = CLK1
+   SETUPTIME_HI = 2.5NS
+   MESSAGE = "TINHIBIT1 IS NOT MET"
*
.ENDS
*
*
*$
*---------
* 74AS109  Dual J-KBar Positive-Edge-Triggered Flip-Flops w/ PreSet & Clear    
*
* National Semiconductor, 1987
* cv	08/20/90	Created from LS
*
.subckt 74AS109  CLK PRBAR CLRBAR J KBAR Q QBAR
+	optional: DPWR=$G_DPWR DGND=$G_DGND
+	params: MNTYMXDLY=0 IO_LEVEL=0
U1 jkff(1) DPWR DGND
+	PRBAR CLRBAR CLKBAR   J K   Q QBAR 
+	D_AS109 IO_AS00 MNTYMXDLY={MNTYMXDLY} IO_LEVEL={IO_LEVEL} 
U2 inva(2) DPWR DGND
+	KBAR CLK   K CLKBAR 
+	D0_GATE IO_AS00 IO_LEVEL={IO_LEVEL} 
.ends
*
.model D_AS109 ueff (
+	tppcqlhmn=3ns	tppcqlhmx=8ns
+	tppcqhlmn=3.5ns	tppcqhlmx=10.5ns
+	tpclkqlhmn=3.5ns	tpclkqlhmx=9ns
+	tpclkqhlmn=4.5ns	tpclkqhlmx=9ns
+	twclkhmn=4ns	twclklmn=5.5ns
+	twpclmn=4ns	tsudclkmn=5.5ns
+	tsupcclkhmn=2ns	thdclkmn=0ns
+	)
*$
*---------
* 74AS136  Quadruple 2-input Exclusive-Or Gates with Open-Collector Outputs
*
* The ALS/AS Data Book, 1986, TI
* tdn	07/05/89	Update interface and model names
*
.subckt 74AS136  A B Y
+	optional: DPWR=$G_DPWR DGND=$G_DGND
+	params: MNTYMXDLY=0 IO_LEVEL=0
U1 xor DPWR DGND
+	A B   Y 
+	D_AS136 IO_AS00_OC MNTYMXDLY={MNTYMXDLY} IO_LEVEL={IO_LEVEL} 
.ends 74AS136
*
.model D_AS136 ugate (
+	tplhty=10.5ns	tphlty=4.3ns
+	)
*$
*---------
* 74AS137  DECODER/DEMULTIPLEXER 3-8 LINE WITH ADDRESS LATCHES
*
* ALS/AS LOGIC CIRCUITS DATA BOOK, TI, 1986
* JLS   8-4-92   REMODELED USING LOGICEXP, PINDLY, AND CONSTRAINT DEVICES
*    
.SUBCKT 74AS137   G1_I G2BAR_I GLBAR_I A_I B_I C_I
+ Y0_O Y1_O Y2_O Y3_O Y4_O Y5_O Y6_O Y7_O
+ OPTIONAL: DPWR=$G_DPWR DGND=$G_DGND
+ PARAMS: MNTYMXDLY=0 IO_LEVEL=0
*
U1 DLTCH(3) DPWR DGND
+ $D_HI $D_HI LATCHEN
+  A     B     C
+ QA    QB    QC
+ QABAR QBBAR QCBAR
+ D0_GFF  IO_AS00
*
UAS137LOG LOGICEXP (12,16) DPWR DGND
+ G1_I G2BAR_I GLBAR_I A_I B_I C_I QA QB QC QABAR QBBAR QCBAR
+ G1   G2BAR   GLBAR   A   B   C   LATCHEN ENABLE
+ Y0 Y1 Y2 Y3 Y4 Y5 Y6 Y7
+ D0_GATE IO_AS00
+ IO_LEVEL={IO_LEVEL}
+
+ LOGIC:
+   G1      = { G1_I }
+   G2BAR   = { G2BAR_I }
+   GLBAR   = { GLBAR_I }
+   A       = { A_I }
+   B       = { B_I }
+   C       = { C_I }
+   LATCHEN = { ~GLBAR }
+   ENABLE  = { G1 & ~G2BAR }
+   Y0      = { ~(ENABLE & QCBAR & QBBAR & QABAR) }
+   Y1      = { ~(ENABLE & QCBAR & QBBAR & QA   ) }
+   Y2      = { ~(ENABLE & QCBAR & QB    & QABAR) }
+   Y3      = { ~(ENABLE & QCBAR & QB    & QA   ) }
+   Y4      = { ~(ENABLE & QC    & QBBAR & QABAR) }
+   Y5      = { ~(ENABLE & QC    & QBBAR & QA   ) }
+   Y6      = { ~(ENABLE & QC    & QB    & QABAR) }
+   Y7      = { ~(ENABLE & QC    & QB    & QA   ) }
*
UAS137DLY PINDLY (8,0,7) DPWR DGND
+ Y0 Y1 Y2 Y3 Y4 Y5 Y6 Y7
+ G1 G2BAR GLBAR A B C ENABLE
+ Y0_O Y1_O Y2_O Y3_O Y4_O Y5_O Y6_O Y7_O
+ IO_AS00
+ MNTYMXDLY={MNTYMXDLY} IO_LEVEL={IO_LEVEL}
+
+ BOOLEAN:
+   ABLE1 = { CHANGED(ENABLE,0) & CHANGED(G1,0) }
+   ABLE2 = { CHANGED(ENABLE,0) & CHANGED(G2BAR,0) }
+   ABLEL = { CHANGED(GLBAR,0) }
+   ADDR  = { CHANGED(A,0) | CHANGED(B,0) | CHANGED(C,0) }
+
+ PINDLY:
+   Y0_O Y1_O Y2_O Y3_O Y4_O Y5_O Y6_O Y7_O = {
+     CASE (
+       ABLE2 & TRN_LH, DELAY(2NS,-1, 8.0NS),
+       ABLE2 & TRN_HL, DELAY(2NS,-1, 8.5NS),
+       ABLE1 & TRN_HL, DELAY(2NS,-1, 9.0NS),
+       ABLE1 & TRN_LH, DELAY(2NS,-1,10.0NS),
+       ADDR          , DELAY(2NS,-1,12.5NS),
+       ABLEL & TRN_LH, DELAY(3NS,-1,13.5NS),
+       ABLEL & TRN_HL, DELAY(3NS,-1,14.0NS),
+       DELAY(3NS,-1,14.0NS)
+       )
+     }
+
+ WIDTH:
+   NODE      = GLBAR
+   MIN_LO    = 4.5NS
+ SETUP_HOLD:
+   DATA(3)   = A B C
+   CLOCK LH  = GLBAR
+   SETUPTIME = 4NS
+   HOLDTIME  = 1NS
*
.ENDS
*
*$
*---------
* 74AS138  DECODER/DEMULTIPLEXER 3-8 LINE
*
* ALS/AS LOGIC CIRCUITS DATA BOOK, 1986, TI
* JLS   8-4-92   REMODELED USING LOGICEXP, PINDLY, AND CONSTRAINT DEVICES
*    
.SUBCKT 74AS138   G1_I G2ABAR_I G2BBAR_I A_I B_I C_I
+ Y0_O Y1_O Y2_O Y3_O Y4_O Y5_O Y6_O Y7_O
+ OPTIONAL: DPWR=$G_DPWR DGND=$G_DGND
+ PARAMS: MNTYMXDLY=0 IO_LEVEL=0
*
UAS138LOG LOGICEXP (6,15) DPWR DGND
+ G1_I G2ABAR_I G2BBAR_I A_I B_I C_I
+ G1   G2ABAR   G2BBAR   A   B   C   ENABLE
+ Y0 Y1 Y2 Y3 Y4 Y5 Y6 Y7
+ D0_GATE IO_AS00
+ IO_LEVEL={IO_LEVEL}
+
+ LOGIC:
+   G1     = { G1_I }
+   G2ABAR = { G2ABAR_I }
+   G2BBAR = { G2BBAR_I }
+   A      = { A_I }
+   B      = { B_I }
+   C      = { C_I }
+   ABAR   = { ~A }
+   BBAR   = { ~B }
+   CBAR   = { ~C }
+   ENABLE = { ~G2ABAR & ~G2BBAR & G1 }
+   Y0     = { ~(ENABLE & CBAR & BBAR & ABAR) }
+   Y1     = { ~(ENABLE & CBAR & BBAR & A   ) }
+   Y2     = { ~(ENABLE & CBAR & B    & ABAR) }
+   Y3     = { ~(ENABLE & CBAR & B    & A   ) }
+   Y4     = { ~(ENABLE & C    & BBAR & ABAR) }
+   Y5     = { ~(ENABLE & C    & BBAR & A   ) }
+   Y6     = { ~(ENABLE & C    & B    & ABAR) }
+   Y7     = { ~(ENABLE & C    & B    & A   ) }
*
UAS138DLY PINDLY (8,0,7) DPWR DGND
+ Y0 Y1 Y2 Y3 Y4 Y5 Y6 Y7
+ ENABLE G1 G2ABAR G2BBAR A B C
+ Y0_O Y1_O Y2_O Y3_O Y4_O Y5_O Y6_O Y7_O
+ IO_AS00
+ MNTYMXDLY={MNTYMXDLY} IO_LEVEL={IO_LEVEL}
+
+ BOOLEAN:
+   ABLE1  = { CHANGED(ENABLE,0) &  CHANGED(G1,0) }
+   ABLE2  = { CHANGED(ENABLE,0) & (CHANGED(G2ABAR,0) | CHANGED(G2BBAR,0)) }
+   ADDR   = { CHANGED(A,0) | CHANGED(B,0) | CHANGED(C,0) }
+
+ PINDLY:
+   Y0_O Y1_O Y2_O Y3_O Y4_O Y5_O Y6_O Y7_O = {
+     CASE (
+       ABLE2 & TRN_LH, DELAY(2NS,-1, 7.5NS),
+       ABLE2 & TRN_HL, DELAY(2NS,-1, 8.5NS),
+       ADDR  & TRN_LH, DELAY(2NS,-1,10.0NS),
+       ADDR  & TRN_HL, DELAY(2NS,-1, 9.5NS),
+       ABLE1         , DELAY(2NS,-1,10.0NS),
+       DELAY(2NS,-1,10.0NS)
+       )
+     }
*
.ENDS
*
*$
*--------
* 74AS139  DECODER/DEMULTIPLEXER 2-4 LINE
*
* ALS/AS LOGIC CIRCUITS DATA BOOK, 1986, TI
* JLS   8-1-92   REMODELED USING LOGICEXP, PINDLY, AND CONSTRAINT DEVICES
*    
.SUBCKT 74AS139   GBAR_I A_I B_I   Y0_O Y1_O Y2_O Y3_O
+ OPTIONAL: DPWR=$G_DPWR DGND=$G_DGND
+ PARAMS: MNTYMXDLY=0 IO_LEVEL=0
*
UAS139LOG LOGICEXP (3,7) DPWR DGND
+ GBAR_I A_I B_I
+ GBAR   A   B
+ Y0 Y1 Y2 Y3
+ D0_GATE IO_AS00
+ IO_LEVEL={IO_LEVEL}
+
+ LOGIC:
+   GBAR   = { GBAR_I }
+   A      = { A_I }
+   B      = { B_I }
+   ABAR   = { ~A }
+   BBAR   = { ~B }
+   ENABLE = { ~GBAR }
+   Y0     = { ~(ENABLE & BBAR & ABAR ) }
+   Y1     = { ~(ENABLE & BBAR & A    ) }
+   Y2     = { ~(ENABLE & B    & ABAR ) }
+   Y3     = { ~(ENABLE & B    & A    ) }
*
UAS139DLY PINDLY (4,0,3) DPWR DGND
+ Y0 Y1 Y2 Y3
+ GBAR A B
+ Y0_O Y1_O Y2_O Y3_O
+ IO_AS00
+ MNTYMXDLY={MNTYMXDLY} IO_LEVEL={IO_LEVEL}
+
+ BOOLEAN:
+   ABLE = { CHANGED(GBAR,0) }
+   ADDR = { CHANGED(A,0) | CHANGED(B,0) }
+
+ PINDLY:
+   Y0_O Y1_O Y2_O Y3_O = {
+     CASE (
+              TRN_LH, DELAY(-1,5.5NS,-1),
+       ABLE & TRN_HL, DELAY(-1,5.0NS,-1),
+       ADDR & TRN_HL, DELAY(-1,6.0NS,-1),
+       DELAY(-1,6.0NS,-1)
+       )
+     }
*
.ENDS
*
*$
*---------
* 74AS151  MULTIPLEXER/DATA SELECTOR 8-1 LINE
*
* ALS/AS LOGIC CIRCUITS DATA BOOK, 1986, TI
* TC  08/21/92  REMODELED USING LOGICEXP, PINDLY, & CONSTRAINT DEVICES
*
.SUBCKT 74AS151 GBAR_I A_I B_I C_I D0_I D1_I D2_I D3_I D4_I D5_I D6_I D7_I
+ Y_O W_O
+ OPTIONAL: DPWR=$G_DPWR DGND=$G_DGND
+ PARAMS: MNTYMXDLY=0 IO_LEVEL=0
*
UAS151LOG LOGICEXP(12,14) DPWR DGND
+ GBAR_I A_I B_I C_I D0_I D1_I D2_I D3_I D4_I D5_I D6_I D7_I
+ GBAR A B C D0 D1 D2 D3 D4 D5 D6 D7 W Y
+ D0_GATE IO_AS00 IO_LEVEL={IO_LEVEL}
+ LOGIC:
+   GBAR = { GBAR_I }
+   A = { A_I }
+   B = { B_I }
+   C = { C_I }
+   D0 = { D0_I }
+   D1 = { D1_I }
+   D2 = { D2_I }
+   D3 = { D3_I }
+   D4 = { D4_I }
+   D5 = { D5_I }
+   D6 = { D6_I }
+   D7 = { D7_I }
+   IA = { ~A }
+   IB = { ~B }
+   IC = { ~C }
+   IG = { ~GBAR }
+   ID0 = { D0 & IA & IB & IC & IG }
+   ID1 = { D1 & A & IB & IC & IG }
+   ID2 = { D2 & IA & B & IC & IG }
+   ID3 = { D3 & A & B & IC & IG }
+   ID4 = { D4 & IA & IB & C & IG }
+   ID5 = { D5 & A & IB & C & IG }
+   ID6 = { D6 & IA & B & C & IG }
+   ID7 = { D7 & A & B & C & IG }
+   W = { ~(ID0 | ID1 | ID2 | ID3 | ID4 | ID5 | ID6 | ID7) }
+   Y = { ~W }
*
UAS151DLY PINDLY (2,0,12) DPWR DGND
+ W Y
+ GBAR A B C D0 D1 D2 D3 D4 D5 D6 D7
+ W_O Y_O
+ IO_AS00 MNTYMXDLY={MNTYMXDLY} IO_LEVEL={IO_LEVEL}
+ BOOLEAN:
+   DATA = { CHANGED(D0,0) | CHANGED(D1,0) | CHANGED(D2,0) | CHANGED(D3,0) |
+     CHANGED(D4,0) | CHANGED(D5,0) | CHANGED(D6,0) | CHANGED(D7,0) }
+   SELECT = { CHANGED(A,0) | CHANGED(B,0) | CHANGED(C,0) }
+   ENABLE = { CHANGED(GBAR,0) }
+ PINDLY:
+   Y_O = {
+     CASE(
+       SELECT & TRN_HL, DELAY(4.5NS,-1,15NS),
+       SELECT & TRN_LH, DELAY(4.5NS,-1,14.5NS),
+       ENABLE & TRN_LH, DELAY(4.5NS,-1,14NS),
+       ENABLE & TRN_HL, DELAY(3NS,-1,11NS),
+       DATA & TRN_HL, DELAY(3NS,-1,11NS),
+       DATA & TRN_LH, DELAY(3NS,-1,10.5NS),
+       DELAY(5NS,-1,16NS)
+       )
+     }
+   W_O = {
+     CASE(
+       SELECT, DELAY(4NS,-1,12NS),
+       ENABLE & TRN_HL, DELAY(3NS,-1,10NS),
+       DATA & TRN_LH, DELAY(2NS,-1,6.5NS),
+       ENABLE & TRN_LH, DELAY(1.5NS,-1,6NS),
+       DATA & TRN_HL, DELAY(1NS,-1,4.5NS),
+       DELAY(5NS,-1,13NS)
+       )
+     }
*
.ENDS
*
*$
*---------
* 74AS153  DUAL 4-LINE TO 1-LINE DATA SELECTORS/MULTIPLEXERS
*
* The ALS/AS Data Book, 1986, TI
* JSW   8/12/92   Remodeled using LOGICEXP, PINDLY, & CONSTRAINT devices
*
.SUBCKT 74AS153 G1BAR_I G2BAR_I A_I B_I 1C0_I 1C1_I 1C2_I  1C3_I
+ 2C0_I 2C1_I 2C2_I 2C3_I Y1_O Y2_O
+ OPTIONAL: DPWR=$G_DPWR DGND=$G_DGND
+ PARAMS: MNTYMXDLY=0 IO_LEVEL=0
*
UAS153LOG LOGICEXP(12,14) DPWR DGND
+ G1BAR_I G2BAR_I A_I B_I 1C0_I 1C1_I 1C2_I 1C3_I 2C0_I 2C1_I 2C2_I 2C3_I
+ G1BAR G2BAR A B 1C0 1C1 1C2  1C3 2C0 2C1 2C2 2C3 Y1 Y2
+ D0_GATE IO_AS00 IO_LEVEL={IO_LEVEL}
+ LOGIC:
+   G1BAR = { G1BAR_I }
+   G2BAR = { G2BAR_I }
+   A = { A_I }
+   B = { B_I }
+   1C0 = { 1C0_I }
+   1C1 = { 1C1_I }
+   1C2 = { 1C2_I }
+   1C3 = { 1C3_I }
+   2C0 = { 2C0_I }
+   2C1 = { 2C1_I }
+   2C2 = { 2C2_I }
+   2C3 = { 2C3_I }
+   G1 = { ~G1BAR }
+   G2 = { ~G2BAR }
+   ABAR = { ~A }
+   BBAR = { ~B }
+   I0 = { G1 & BBAR & ABAR & 1C0 }
+   I1 = { G1 & BBAR & A    & 1C1 }
+   I2 = { G1 & B    & ABAR & 1C2 }
+   I3 = { G1 & B    & A    & 1C3 }
+   I4 = { G2 & BBAR & ABAR & 2C0 }
+   I5 = { G2 & BBAR & A    & 2C1 }
+   I6 = { G2 & B    & ABAR & 2C2 }
+   I7 = { G2 & B    & A    & 2C3 }
+   Y1 = { I0 | I1 | I2 | I3 }
+   Y2 = { I4 | I5 | I6 | I7 }
*
UAS153DLY PINDLY (2,0,12) DPWR DGND
+ Y1 Y2
+ G1BAR G2BAR A B 1C0 1C1 1C2 1C3 2C0 2C1 2C2 2C3
+ Y1_O Y2_O
+ IO_AS00
+ MNTYMXDLY = {MNTYMXDLY} IO_LEVEL = {IO_LEVEL}
+ BOOLEAN:
+   DATA1 = { (CHANGED(1C0,0) | CHANGED(1C1,0) | CHANGED(1C2,0) |
+     CHANGED(1C3,0)) }
+   DATA2 = { (CHANGED(2C0,0) | CHANGED(2C1,0) | CHANGED(2C2,0) |
+     CHANGED(2C3,0)) }
+   SELECT = { CHANGED(A,0) | CHANGED(B,0) }
+ PINDLY:
+   Y1_O = {
+     CASE(
+       SELECT & TRN_LH, DELAY(3NS,-1,12.5NS),
+       CHANGED(G1BAR,0) & TRN_LH, DELAY(3NS,-1,11.5NS),
+       SELECT & TRN_HL, DELAY(3NS,-1,11NS),
+       CHANGED(G1BAR,0) & TRN_HL, DELAY(2NS,-1,9NS),
+       DATA1 & TRN_HL, DELAY(2NS,-1,8NS),
+       DATA1 & TRN_LH, DELAY(2NS,-1,7NS),
+       DELAY(4NS,-1,13NS)
+       )
+     }
+   Y2_O = {
+     CASE(
+       SELECT & TRN_LH, DELAY(3NS,-1,12.5NS),
+       CHANGED(G2BAR,0) & TRN_LH, DELAY(3NS,-1,11.5NS),
+       SELECT & TRN_HL, DELAY(3NS,-1,11NS),
+       CHANGED(G2BAR,0) & TRN_HL, DELAY(2NS,-1,9NS),
+       DATA2 & TRN_HL, DELAY(2NS,-1,8NS),
+       DATA2 & TRN_LH, DELAY(2NS,-1,7NS),
+       DELAY(4NS,-1,13NS)
+       )
+     }
*
.ENDS
*
*$
*---------
* 74AS157  QUADRUPLE 2-LINE TO 1-LINE DATA SELECTORS/MULTIPLEXERS
*
* The ALS/AS Data Book, 1986, TI
* JSW   8/25/92   Remodeled using LOGICEXP, PINDLY, & CONSTRAINT devices
*
.SUBCKT 74AS157 GBAR_I 1A_I 1B_I 2A_I 2B_I 3A_I 3B_I 4A_I 4B_I SEL_I
+ Y1_O Y2_O Y3_O Y4_O
+ OPTIONAL: DPWR=$G_DPWR DGND=$G_DGND
+ PARAMS: MNTYMXDLY=0 IO_LEVEL=0
*
UAS157LOG LOGICEXP(10,14) DPWR DGND
+ GBAR_I 1A_I 1B_I 2A_I 2B_I 3A_I 3B_I 4A_I 4B_I SEL_I
+ GBAR 1A 1B 2A 2B 3A 3B 4A 4B SEL Y1 Y2 Y3 Y4
+ D0_GATE IO_AS00 IO_LEVEL={IO_LEVEL}
+ LOGIC:
+   GBAR = { GBAR_I }
+   1A = { 1A_I }
+   1B = { 1B_I }
+   2A = { 2A_I }
+   2B = { 2B_I }
+   3A = { 3A_I }
+   3B = { 3B_I }
+   4A = { 4A_I }
+   4B = { 4B_I }
+   SEL = { SEL_I }
+   SELBAR = { ~SEL }
+   G = { ~GBAR }
+   Y1 = { (1A & SELBAR & G) | (1B & SEL & G) }
+   Y2 = { (2A & SELBAR & G) | (2B & SEL & G) }
+   Y3 = { (3A & SELBAR & G) | (3B & SEL & G) }
+   Y4 = { (4A & SELBAR & G) | (4B & SEL & G) }
*
UAS157DLY PINDLY (4,0,10) DPWR DGND
+ Y1 Y2 Y3 Y4
+ GBAR 1A 1B 2A 2B 3A 3B 4A 4B SEL
+ Y1_O Y2_O Y3_O Y4_O
+ IO_AS00
+ MNTYMXDLY = {MNTYMXDLY} IO_LEVEL = {IO_LEVEL}
+ BOOLEAN:
+   DATA = { CHANGED(1A,0) | CHANGED(1B,0) | CHANGED(2A,0) | CHANGED(2B,0) |
+     CHANGED(3A,0) | CHANGED(3B,0) | CHANGED(4A,0) | CHANGED(4B,0) }
+   SELECT = { CHANGED(SEL,0) }
+   ENABLE = { CHANGED(GBAR,0) }
+ PINDLY:
+   Y1_O Y2_O Y3_O Y4_O = {
+     CASE(
+       SELECT & TRN_LH, DELAY(2NS,-1,11NS),
+       ENABLE & TRN_LH, DELAY(2NS,-1,10.5NS),
+       SELECT & TRN_HL, DELAY(2NS,-1,10NS),
+       ENABLE & TRN_HL, DELAY(2NS,-1,7.5NS),
+       DATA & TRN_LH, DELAY(1NS,-1,6NS),
+       DATA & TRN_HL, DELAY(1NS,-1,5.5NS),
+       DELAY(3NS,-1,12NS)
+       )
+     }
*
.ENDS
*
*$
*---------
* 74AS158  DUAL 4-LINE TO 1-LINE DATA SELECTORS/MULTIPLEXERS
*
* The ALS/AS Data Book, 1986, TI
* JSW   8/25/92   Remodeled using LOGICEXP, PINDLY, & CONSTRAINT devices
*
.SUBCKT 74AS158 GBAR_I 1A_I 1B_I 2A_I 2B_I 3A_I 3B_I 4A_I 4B_I SEL_I
+ Y1_O Y2_O Y3_O Y4_O
+ OPTIONAL: DPWR=$G_DPWR DGND=$G_DGND
+ PARAMS: MNTYMXDLY=0 IO_LEVEL=0
*
UAS158LOG LOGICEXP(10,14) DPWR DGND
+ GBAR_I 1A_I 1B_I 2A_I 2B_I 3A_I 3B_I 4A_I 4B_I SEL_I
+ GBAR 1A 1B 2A 2B 3A 3B 4A 4B SEL Y1 Y2 Y3 Y4
+ D0_GATE IO_AS00 IO_LEVEL={IO_LEVEL}
+ LOGIC:
+   GBAR = { GBAR_I }
+   1A = { 1A_I }
+   1B = { 1B_I }
+   2A = { 2A_I }
+   2B = { 2B_I }
+   3A = { 3A_I }
+   3B = { 3B_I }
+   4A = { 4A_I }
+   4B = { 4B_I }
+   SEL = { SEL_I }
+   SELBAR = { ~SEL }
+   G = { ~GBAR }
+   Y1 = { ~((1A & SELBAR & G) | (1B & SEL & G)) }
+   Y2 = { ~((2A & SELBAR & G) | (2B & SEL & G)) }
+   Y3 = { ~((3A & SELBAR & G) | (3B & SEL & G)) }
+   Y4 = { ~((4A & SELBAR & G) | (4B & SEL & G)) }
*
UAS158DLY PINDLY (4,0,10) DPWR DGND
+ Y1 Y2 Y3 Y4
+ GBAR 1A 1B 2A 2B 3A 3B 4A 4B SEL
+ Y1_O Y2_O Y3_O Y4_O
+ IO_AS00
+ MNTYMXDLY = {MNTYMXDLY} IO_LEVEL = {IO_LEVEL}
+ BOOLEAN:
+   DATA = { CHANGED(1A,0) | CHANGED(1B,0) | CHANGED(2A,0) | CHANGED(2B,0) |
+     CHANGED(3A,0) | CHANGED(3B,0) | CHANGED(4A,0) | CHANGED(4B,0) }
+   SELECT = { CHANGED(SEL,0) }
+   ENABLE = { CHANGED(GBAR,0) }
+ PINDLY:
+   Y1_O Y2_O Y3_O Y4_O = {
+     CASE(
+       SELECT & TRN_HL, DELAY(2NS,-1,10.5NS),
+       ENABLE & TRN_HL, DELAY(2NS,-1,10NS),
+       SELECT & TRN_LH, DELAY(2NS,-1,9.5NS),
+       ENABLE & TRN_LH, DELAY(2NS,-1,6.5NS),
+       DATA & TRN_LH, DELAY(1NS,-1,5NS),
+       DATA & TRN_HL, DELAY(1NS,-1,4.5NS),
+       DELAY(3NS,-1,11NS)
+       )
+     }
*
.ENDS
*
*$
*---------
* 74AS160  Synchronous 4-bit Decade Counters with asynchronous clear 
*
* ALS/AS LOGIC DATA BOOK, 1986, TI
* JSW   7/1/92   Remodeled using LOGICEXP, PINDLY, & CONSTRAINT devices  
*
.SUBCKT 74AS160  CLK_I ENP_I ENT_I CLRBAR_I LOADBAR_I A_I B_I C_I D_I 
+ QA_O QB_O QC_O QD_O RCO_O
+ OPTIONAL: DPWR=$G_DPWR DGND=$G_DGND
+ PARAMS: MNTYMXDLY=0 IO_LEVEL=0
* 
UAS160LOG LOGICEXP(13,15) DPWR DGND
+ CLK_I ENP_I ENT_I CLRBAR_I LOADBAR_I A_I B_I C_I D_I QA QB QC QD
+ CLK ENP ENT CLRBAR LOADBAR A B C D RCO DA DB DC DD EN
+ D0_GATE IO_AS00 IO_LEVEL={IO_LEVEL}
+ LOGIC:
+   CLK = { CLK_I }                     ;Buffering
+   ENP = { ENP_I }
+   ENT = { ENT_I }
+   CLRBAR = { CLRBAR_I }
+   LOADBAR = { LOADBAR_I }
+   A = { A_I }
+   B = { B_I }
+   C = { C_I }
+   D = { D_I }
+   LOAD = { ~LOADBAR }               ;Logic expressions
+   EN = { ENP & ENT & LOADBAR }
+   DA = { ((LOADBAR & QA) ^ EN) | (A & LOAD) }
+   DB = { (~(EN & QA) & LOADBAR & QB) | (~(LOADBAR & QB) & EN & QA
+     & ~QD) | (B & LOAD) }
+   DC = { ((LOADBAR & QC) ^ (EN & QA & QB)) | (C & LOAD) }
+   DD = { (~(EN & QA) & LOADBAR & QD) | (~(LOADBAR & QD) & EN & QC
+     & QB & QA) | (D & LOAD) }
+   RCO = { ENT & QA & QD }
*
UDFF DFF(4) DPWR DGND $D_HI CLRBAR CLK DA DB DC DD
+ QA QB QC QD QABAR QBBAR QCBAR QDBAR D0_EFF IO_AS00
*
UAS160DLY PINDLY (5,0,10) DPWR DGND
+ RCO QA QB QC QD
+ CLK LOADBAR ENT CLRBAR ENP A B C D EN
+ RCO_O QA_O QB_O QC_O QD_O
+ IO_AS00 MNTYMXDLY={MNTYMXDLY} IO_LEVEL={IO_LEVEL}
+ BOOLEAN:
+   CLOCK = { CHANGED_LH(CLK,0) }
+   CNTENT = { CHANGED(ENT,0) }
+   CLEAR = { CHANGED_HL(CLRBAR,0) }
+ PINDLY:
+   QA_O QB_O QC_O QD_O = {
+     CASE(
+       CLOCK & TRN_LH, DELAY(1NS,-1,7NS),
+       CLOCK & TRN_HL, DELAY(2NS,-1,13NS),
+       CLEAR, DELAY(2NS,-1,13NS),
+       DELAY(2NS,-1,13NS)
+   	)
+     }
+   RCO_O = {
+     CASE(
+       CLOCK & TRN_HL, DELAY(2NS,-1,12.5NS),
+       CLOCK & LOADBAR=='1, DELAY(1NS,-1,8NS),
+       CLOCK & LOADBAR=='0, DELAY(3NS,-1,16.5NS),
+       CNTENT & TRN_HL, DELAY(1NS,-1,8.5NS),
+       CNTENT & TRN_LH, DELAY(1.5NS,-1,9NS),
+       CLEAR, DELAY(2NS,-1,12.5NS),
+       DELAY(2NS,-1,12.5NS)
+       )
+     }
+ FREQ:
+   NODE = CLK
+   MAXFREQ = 75MEG
+ WIDTH:
+   NODE = CLK
+   MIN_LO = 6.7NS
+   MIN_HI = 6.7NS
+ WIDTH:
+   NODE = CLRBAR
+   MIN_LO = 8NS
+ SETUP_HOLD:
+   DATA(1) = LOADBAR 
+   CLOCK LH = CLK
+   SETUPTIME = 8NS
+   WHEN = { CLRBAR!='0 }
+ SETUP_HOLD:
+   DATA(2) = ENP ENT
+   CLOCK LH = CLK
+   SETUPTIME = 8NS
+   WHEN = { CLRBAR!='0 & (LOADBAR!='0 ^ CHANGED(LOADBAR,0)) 
+     & CHANGED(EN,8NS) }
+ SETUP_HOLD:
+   DATA(4) = A B C D
+   CLOCK LH = CLK
+   SETUPTIME = 8NS
+   WHEN = { (LOADBAR!='1 ^ CHANGED(LOADBAR,0)) & CLRBAR!='0 }
+ SETUP_HOLD:
+   DATA(1) = CLRBAR
+   CLOCK LH = CLK
+   RELEASETIME_LH = 8NS
*
.ENDS
*
*$
*---------
* 74AS161  Synchronous 4-bit Binary Counter with Direct Clear
*
* THE ALS/AS DATA BOOK, 1986, TI
* tc  07/01/92  Remodeled using LOGICEXP, PINDLY, & CONSTRAINT devices
*
.SUBCKT 74AS161 CLK_I ENP_I ENT_I CLRBAR_I LOADBAR_I A_I B_I C_I D_I
+ QA_O QB_O QC_O QD_O RCO_O
+ OPTIONAL: DPWR=$G_DPWR DGND=$G_DGND
+ PARAMS: MNTYMXDLY=0 IO_LEVEL=0
*
U1 DFF(4) DPWR DGND $D_HI CLRBAR CLK
+ DA DB DC DD QA QB QC QD $D_NC $D_NC $D_NC $D_NC
+ D0_EFF IO_AS00
*
UAS161LOG LOGICEXP(13,15) DPWR DGND
+ CLK_I ENP_I ENT_I CLRBAR_I LOADBAR_I A_I B_I C_I D_I QA QB QC QD
+ CLK ENP ENT CLRBAR LOADBAR A B C D RCO DA DB DC DD IEN
+ D0_GATE IO_AS00 IO_LEVEL={IO_LEVEL}
+ LOGIC:
+   CLK = { CLK_I }
+   ENP = { ENP_I }
+   ENT = { ENT_I }
+   CLRBAR = { CLRBAR_I }
+   LOADBAR = { LOADBAR_I }
+   A = { A_I }
+   B = { B_I }
+   C = { C_I }
+   D = { D_I }
+   ILD = { ~LOADBAR }
+   IEN = { ENP & ENT & LOADBAR }
+   IA = { (LOADBAR & QA) ^ IEN }
+   IB = { (LOADBAR & QB) ^ (IEN & QA) }
+   IC = { (LOADBAR & QC) ^ (IEN & QA & QB) }
+   ID = { (LOADBAR & QD) ^ (IEN & QA & QB & QC) }
+   RCO = { ENT & QA & QB & QC & QD }
+   DA = { IA | (ILD & A) }
+   DB = { IB | (ILD & B) }
+   DC = { IC | (ILD & C) }
+   DD = { ID | (ILD & D) }
*
UAS161DLY PINDLY (5,0,10) DPWR DGND
+ RCO QA QB QC QD
+ CLK ENT CLRBAR LOADBAR ENP A B C D IEN
+ RCO_O QA_O QB_O QC_O QD_O
+ IO_AS00 MNTYMXDLY={MNTYMXDLY} IO_LEVEL={IO_LEVEL}
+ BOOLEAN:
+   CLOCK = { CHANGED_LH(CLK,0) }
+   CLEAR = { CHANGED_HL(CLRBAR,0) }
+ PINDLY:
+   QA_O QB_O QC_O QD_O = {
+     CASE(
+       CLOCK & TRN_LH, DELAY(1NS,-1,7NS),
+       CLOCK & TRN_HL, DELAY(2NS,-1,13NS),
+       DELAY(2NS,-1,13NS)
+       )
+     }
+   RCO_O = {
+     CASE(
+       CLOCK & TRN_LH & LOADBAR=='1, DELAY(1NS,-1,8NS),
+       CHANGED(ENT,0) & TRN_HL, DELAY(1NS,-1,8.5NS),
+       CHANGED(ENT,0) & TRN_LH, DELAY(1.5NS,-1,9NS),
+       CLEAR, DELAY(2NS,-1,12.5NS),
+       CLOCK & TRN_HL, DELAY(2NS,-1,12.5NS),
+       CLOCK & TRN_LH & LOADBAR=='0, DELAY(3NS,-1,16.5NS),
+       DELAY(3NS,-1,16.5NS)
+       )
+     }
+ FREQ:
+   NODE = CLK
+   MAXFREQ = 75MEG
+ WIDTH:
+   NODE = CLK
+   MIN_LO = 6.7NS
+   MIN_HI = 6.7NS
+ WIDTH:
+   NODE = CLRBAR
+   MIN_LO = 8NS
+ SETUP_HOLD:
+   DATA(4) = A B C D
+   CLOCK LH = CLK
+   SETUPTIME = 8NS
+   WHEN = { (LOADBAR!='1 ^ CHANGED(LOADBAR,0)) & CLRBAR!='0 }
+ SETUP_HOLD:
+   DATA(2) = ENP ENT
+   CLOCK LH = CLK
+   SETUPTIME = 8NS
+   WHEN = { (LOADBAR!='0 ^ CHANGED(LOADBAR,0)) & CLRBAR!='0 &
+     CHANGED(IEN,8NS) }
+ SETUP_HOLD:
+   DATA(1) = LOADBAR
+   CLOCK LH = CLK
+   SETUPTIME = 8NS
+   WHEN = { CLRBAR!='0 }
+ SETUP_HOLD:
+   DATA(1) = CLRBAR
+   CLOCK LH = CLK
+   RELEASETIME_LH = 8NS
*
.ENDS
*
*$
*---------
* 74AS162  Synchronous 4-bit Decade Counters with asynchronous clear 
*
* ALS/AS LOGIC CIRCUITS DATA BOOK, 1986, TI
* JSW   7/1/92   Remodeled using LOGICEXP, PINDLY, & CONSTRAINT devices  
*
.SUBCKT 74AS162 CLK_I ENP_I ENT_I CLRBAR_I LOADBAR_I A_I B_I C_I D_I
+ QA_O QB_O QC_O QD_O RCO_O
+ OPTIONAL: DPWR=$G_DPWR DGND=$G_DGND
+ PARAMS: MNTYMXDLY=0 IO_LEVEL=0
* 
UAS162LOG LOGICEXP(13,15) DPWR DGND
+ CLK_I ENP_I ENT_I CLRBAR_I LOADBAR_I A_I B_I C_I D_I QA QB QC QD
+ CLK ENP ENT CLRBAR LOADBAR A B C D RCO DA DB DC DD EN
+ D0_GATE IO_AS00 IO_LEVEL={IO_LEVEL}
+ LOGIC:
+   CLK = { CLK_I }                     ;Buffering
+   ENP = { ENP_I }
+   ENT = { ENT_I }
+   CLRBAR = { CLRBAR_I }
+   LOADBAR = { LOADBAR_I }
+   A = { A_I }
+   B = { B_I }
+   C = { C_I }
+   D = { D_I }
+   LOADB = { LOADBAR & CLRBAR }      ;Logic expressions
+   LOAD = { ~LOADBAR & CLRBAR }
+   EN = { ENP & ENT & LOADBAR & CLRBAR }
+   DA = { ((LOADB & QA) ^ EN) | (A & LOAD) }
+   DB = { (~(EN & QA) & LOADB & QB) | (~(LOADB & QB) & EN & QA
+     & ~QD) | (B & LOAD) }
+   DC = { ((LOADB & QC) ^ (EN & QA & QB)) | (C & LOAD) }