* Library of 74F Family Digital Models
*
*  Copyright OrCAD, Inc. 1998 All Rights Reserved.
*
*
* $Revision:   1.4  $
* $Author:   RPEREZ  $
* $Date:   16 Apr 1998 14:27:10  $
*
*
*$
*---------
* 74F00  Quadruple 2-input Positive-Nand Gates
*
* The F Logic Data Book, 1987, TI
* tdn   06/24/89	Update interface and model names
*
.subckt 74F00  A B Y
+	optional: DPWR=$G_DPWR DGND=$G_DGND
+	params: MNTYMXDLY=0 IO_LEVEL=0
U1 nand(2) DPWR DGND
+	A B   Y 
+	D_F00 IO_F MNTYMXDLY={MNTYMXDLY} IO_LEVEL={IO_LEVEL} 
.ends
*
.model D_F00 ugate (
+	tplhty=3.3ns	tphlty=2.8ns
+	tplhmn=1.6ns	tplhmx=6ns
+	tphlmn=1ns	tphlmx=5.3ns
+	)
*$
*---------
* 74F02  Quadruple 2-input Positive-Nor Gates
*
* The F Logic Data Book, 1987, TI
* tdn	06/23/89	Update interface and model names
*
.subckt 74F02  A B Y
+	optional: DPWR=$G_DPWR DGND=$G_DGND
+	params: MNTYMXDLY=0 IO_LEVEL=0
U1 nor(2) DPWR DGND
+	A B   Y 
+	D_F02 IO_F MNTYMXDLY={MNTYMXDLY} IO_LEVEL={IO_LEVEL} 
.ends
*
.model D_F02 ugate (
+	tplhty=4ns	tphlty=2.8ns
+	tplhmn=1.7ns	tplhmx=6.5ns
+	tphlmn=1ns	tphlmx=5.3ns
+	)
*$
*---------
* 74F04  Hex Inverters
* 
* The F Logic Data Book, 1987, TI
* tdn	06/23/89	Update interface and model names
*
.subckt 74F04  A Y
+	optional: DPWR=$G_DPWR DGND=$G_DGND
+	params: MNTYMXDLY=0 IO_LEVEL=0
U1 inv DPWR DGND
+	A   Y 
+	D_F04 IO_F MNTYMXDLY={MNTYMXDLY} IO_LEVEL={IO_LEVEL} 
.ends
*
.model D_F04 ugate (
+	tplhty=3.3ns	tphlty=2.8ns
+	tplhmn=1.6ns	tplhmx=6ns
+	tphlmn=1ns	tphlmx=5.3ns
+	)
*$
*---------
* 74F08  Quadruple 2-input Positive-And Gates
*
* The F Logic Data Book, 1987, TI
* tdn	06/23/89	Update interface and model names
*
.subckt 74F08  A B Y
+	optional: DPWR=$G_DPWR DGND=$G_DGND
+	params: MNTYMXDLY=0 IO_LEVEL=0
U1 and(2) DPWR DGND
+	A B   Y 
+	D_F08 IO_F MNTYMXDLY={MNTYMXDLY} IO_LEVEL={IO_LEVEL} 
.ends
*
.model D_F08 ugate (
+	tplhty=3.8ns	tphlty=3.6ns
+	tplhmn=2.2ns	tplhmx=6.6ns
+	tphlmn=1.7ns	tphlmx=6.3ns
+	)
*$
*---------
* 74F10  Triple 3-input Positive-Nand Gates
*
* The F Logic Data Book, 1987, TI
* tdn 	06/23/89	Update interface and model names
*
.subckt 74F10  A B C Y
+	optional: DPWR=$G_DPWR DGND=$G_DGND
+	params: MNTYMXDLY=0 IO_LEVEL=0
U1 nand(3) DPWR DGND
+	A B C   Y 
+	D_F10 IO_F MNTYMXDLY={MNTYMXDLY} IO_LEVEL={IO_LEVEL} 
.ends
*
.model D_F10 ugate (
+	tplhty=3.3ns	tphlty=2.8ns
+	tplhmn=1.6ns	tplhmx=6ns
+	tphlmn=1ns	tphlmx=5.3ns
+	)
*$
*---------
* 74F11  Triple 3-input Positive-And Gates
*
* The F Logic Data Book, 1987, TI
* tdn	06/23/89	Update interface and model names
*
.subckt 74F11  A B C Y
+	optional: DPWR=$G_DPWR DGND=$G_DGND
+	params: MNTYMXDLY=0 IO_LEVEL=0
U1 and(3) DPWR DGND
+	A B C   Y 
+	D_F11 IO_F MNTYMXDLY={MNTYMXDLY} IO_LEVEL={IO_LEVEL} 
.ends
*
.model D_F11 ugate (
+	tplhty=3.8ns	tphlty=3.7ns
+	tplhmn=2.2ns	tplhmx=6.6ns
+	tphlmn=1.7ns	tphlmx=6.5ns
+	)
*$
*---------
* 74F20  Dual 4-input Positive-Nand Gates
*
* The F Logic Data Book, 1987, TI
* tdn	06/26/89	Update interface and model names
*
.subckt 74F20  A B C D Y
+	optional: DPWR=$G_DPWR DGND=$G_DGND
+	params: MNTYMXDLY=0 IO_LEVEL=0
U1 nand(4) DPWR DGND
+	A B C D   Y 
+	D_F20 IO_F MNTYMXDLY={MNTYMXDLY} IO_LEVEL={IO_LEVEL} 
.ends
*
.model D_F20 ugate (
+	tplhty=3.3ns	tphlty=2.8ns
+	tplhmn=1.6ns	tplhmx=6ns
+	tphlmn=1ns	tphlmx=5.3ns
+	)
*$
*---------
* 74F21  Dual 4-input Positive-And Gates
*
* The F Logic Data Book, 1987, TI
* tdn	06/26/89	Update interface and model names
*
.subckt 74F21  A B C D Y
+	optional: DPWR=$G_DPWR DGND=$G_DGND
+	params: MNTYMXDLY=0 IO_LEVEL=0
U1 and(4) DPWR DGND
+	A B C D   Y 
+	D_F21 IO_F MNTYMXDLY={MNTYMXDLY} IO_LEVEL={IO_LEVEL} 
.ends
*
.model D_F21 ugate (
+	tplhty=4.3ns	tphlty=3.8ns
+	)
*$
*---------
* 74F27  Triple 3-input Positive-Nor Gates
*
* The F Logic Data Book, 1987, TI
* tdn	06/26/89	Update interface and model names
*
.subckt 74F27  A B C Y
+	optional: DPWR=$G_DPWR DGND=$G_DGND
+	params: MNTYMXDLY=0 IO_LEVEL=0
U1 nor(3) DPWR DGND
+	A B C   Y 
+	D_F27 IO_F MNTYMXDLY={MNTYMXDLY} IO_LEVEL={IO_LEVEL} 
.ends
*
.model D_F27 ugate (
+	tplhmn=1.2ns	tphlmn=1ns
+	tplhty=3.1ns	tplhmx=5.5ns
+	tphlty=2.1ns	tphlmx=4.5ns
+	)
*$
*---------
* 74F30  8-input Positive-Nand Gates
*
* The F Logic Data Book, 1987, TI
* tdn	06/26/89	Update interface and model names
*
.subckt 74F30  A B C D E F G H Y
+	optional: DPWR=$G_DPWR DGND=$G_DGND
+	params: MNTYMXDLY=0 IO_LEVEL=0
U1 nand(8) DPWR DGND
+	A B C D E F G H   Y 
+	D_F30 IO_F MNTYMXDLY={MNTYMXDLY} IO_LEVEL={IO_LEVEL} 
.ends
*
.model D_F30 ugate (
+	tplhty=3.1ns	tphlty=2.6ns
+	tplhmn=1ns	tplhmx=5.5ns
+	tphlmn=1ns	tphlmx=5ns
+	)
*$
*---------
* 74F32  Quadruple 2-input Positive-Or Gates
*
* The F Logic Data Book, 1987, TI
* tdn	06/26/89	Update interface and model names
*
.subckt 74F32  A B Y
+	optional: DPWR=$G_DPWR DGND=$G_DGND
+	params: MNTYMXDLY=0 IO_LEVEL=0
U1 or(2) DPWR DGND
+	A B   Y 
+	D_F32 IO_F MNTYMXDLY={MNTYMXDLY} IO_LEVEL={IO_LEVEL} 
.ends
*
.model D_F32 ugate (
+	tplhty=3.8ns	tphlty=3.6ns
+	tplhmn=2.2ns	tplhmx=6.6ns
+	tphlmn=2.2ns	tphlmx=6.3ns
+	)
*$
*-------------------------------------------------------------------------
* 74F36  Quadruple 2-input Positive-Nor Gate
*
* The F Logic Data Book, 1987, TI
* tdn	08/10/89	Update interface and model names
*
.subckt 74F36  A B Y
+	optional: DPWR=$G_DPWR DGND=$G_DGND
+	params: MNTYMXDLY=0 IO_LEVEL=0
U1 nor(2) DPWR DGND
+	A B   Y 
+	D_F36 IO_F MNTYMXDLY={MNTYMXDLY} IO_LEVEL={IO_LEVEL} 
.ends
*
.model D_F36 ugate (
+	tplhmn=1.7ns	tplhty=4ns
+	tplhmx=6.5ns	tphlmn=1ns
+	tphlty=2.8ns	tphlmx=5.3ns
+	)
*$
*---------
* 74F38  Quadruple 2-input Positive-Nand Buffers w/ Open-Collector Outputs
*
* 1988 National Semiconductor.  Updated 8/20/90
*
.subckt 74F38  A B OBAR
+	optional: DPWR=$G_DPWR DGND=$G_DGND
+	params: MNTYMXDLY=0 IO_LEVEL=0
U1 nand(2) DPWR DGND
+	A B   OBAR 
+	D_74F38 IO_F_OC MNTYMXDLY={MNTYMXDLY} IO_LEVEL={IO_LEVEL} 
.ends
*
.model D_74F38 ugate (
+	tplhmn=6.5ns	tplhty=9.7ns
+	tplhmx=13ns	tphlmn=1ns
+	tphlty=2.1ns	tphlmx=5.5ns
+	)
*$
*------------------------------------------------------------------------
* 74F64  4-2-3-2 Input And-Or-Invert Gates
*
* 1988 National Semiconductor.  Updated 8/20/90
*
.subckt 74F64  A0 A1 A2 A3 B0 B1 B2 B3 C0 C1 D0 OBAR
+	optional: DPWR=$G_DPWR DGND=$G_DGND
+	params: MNTYMXDLY=0 IO_LEVEL=0
U1 aoi(4,4) DPWR DGND
+	A0	B0	C0	D0
+	A2	B2	$D_HI	$D_HI
+	A1	B1	C1	$D_HI
+	B3	A3	$D_HI	$D_HI
+	OBAR
+	D_F64 IO_F MNTYMXDLY={MNTYMXDLY} IO_LEVEL={IO_LEVEL} 
.ends
*
.model D_F64 ugate (
+	tplhmn=2.5ns	tplhty=4.6ns
+	tplhmx=7.5ns	tplhmn=1.5ns
+	tphlty=3.2ns	tphlmx=5.5ns
+	)
*$
*---------
* 74F74  Dual D-Type Positive-Edge-Triggered Flip-Flops w/ Preset & Clear
*
* The F Logic Data Book, 1987, TI
* tdn	06/28/89	Update interface and model names
*
.subckt 74F74  1CLRBAR 1D 1CLK 1PREBAR 1Q 1QBAR
+	optional: DPWR=$G_DPWR DGND=$G_DGND
+	params: MNTYMXDLY=0 IO_LEVEL=0
UFF1 dff(1) DPWR DGND
+	1PREBAR 1CLRBAR 1CLK   1D   1Q 1QBAR 
+	D_F74 IO_F MNTYMXDLY={MNTYMXDLY} IO_LEVEL={IO_LEVEL} 
.ends
*
.model D_F74 ueff (
+	twpclmn=4ns	twclklmn=5ns
+	twclkhmn=4ns	tsudclkmn=3ns
+	tsupcclkhmn=2ns	thdclkmn=1ns
+	tppcqlhmn=2.40ns	tppcqlhmx=7.1ns
+	tppcqhlmn=2.70ns	tppcqhlmx=10.5ns
+	tpclkqlhmn=3.00ns	tpclkqlhmx=7.8ns
+	tpclkqhlmn=3.6ns	tpclkqhlmx=9.2ns
+	)
*$
*---------
* 74F86  Quadruple 2-input Exclusive-Or Gates      
*
* 1988 National Semiconductor.  Updated 8/20/90
*
.subckt 74F86  A B O
+	optional: DPWR=$G_DPWR DGND=$G_DGND
+	params: MNTYMXDLY=0 IO_LEVEL=0
UIBUF bufa(2) DPWR DGND
+	A B   A_BUF B_BUF 
+	D0_GATE IO_F IO_LEVEL={IO_LEVEL} 
U1 or(2) DPWR DGND
+	A_BUF B_BUF   C 
+	D_74F86_1 IO_F MNTYMXDLY={MNTYMXDLY} 
U2 nand(2) DPWR DGND
+	A_BUF B_BUF   D 
+	D_74F86_2 IO_F MNTYMXDLY={MNTYMXDLY} 
U3 and(2) DPWR DGND
+	C D   O 
+	D_74F86_3 IO_F MNTYMXDLY={MNTYMXDLY} IO_LEVEL={IO_LEVEL} 
.ends
*
.model D_74F86_1 ugate (
+	tplhmn=2ns	tplhty=3ns
+	tplhmx=5.5ns	tphlmn=2ns
+	tphlty=3.2ns	tphlmx=5.5ns
+	)
.model D_74F86_2 ugate (
+	tplhmn=2ns	tplhty=3.7ns
+	tplhmx=7ns	tphlmn=2.5ns
+	tphlty=4.3ns	tphlmx=6.5ns
+	)
.model D_74F86_3 ugate (
+	tplhmn=1ns	tplhty=1ns
+	tplhmx=1ns	tphlmn=1ns
+	tphlty=1ns	tphlmx=1ns
+	)
*$
*---------	 
* 74F109  Dual J-Kbar Positive-Edge-Triggered Flip-Flops w/ Preset & Clear
*
* The F Logic Data Book, 1987, TI
* tdn	06/30/89	Update interface and model names
*
.subckt 74F109  CLK PREBAR CLRBAR J KBAR Q QBAR
+	optional: DPWR=$G_DPWR DGND=$G_DGND
+	params: MNTYMXDLY=0 IO_LEVEL=0
U1 jkff(1) DPWR DGND
+	PREBAR CLRBAR CLKBAR   J K   Q QBAR 
+	D_F109 IO_F MNTYMXDLY={MNTYMXDLY} IO_LEVEL={IO_LEVEL} 
U2 inva(2) DPWR DGND
+	KBAR CLK   K CLKBAR 
+	D0_GATE IO_F IO_LEVEL={IO_LEVEL} 
.ends
*
.model D_F109 ueff (
+	tppcqlhmn=2.4ns	tppcqlhty=4.8ns
+	tppcqlhmx=7.1ns	tppcqhlmn=2.7ns
+	tppcqhlty=6.6ns	tppcqhlmx=10.5ns
+	tpclkqlhmn=3ns	tpclkqlhty=4.9ns
+	tpclkqlhmx=7.8ns	tpclkqhlmn=3.6ns
+	tpclkqhlty=5.8ns	tpclkqhlmx=9.2ns
+	twclkhmx=4ns	twclklmx=5ns
+	twclkhty=4ns	twclklty=5ns
+	twpclmx=4ns	twpclty=4ns
+	tsudclkmx=3ns	tsudclkty=3ns
+	tsupcclkhmx=2ns	tsupcclkhty=2ns
+	thdclkmx=1ns	thdclkty=1ns
+	)
*$
*---------
* 74F112  Dual J-K Negative-Edge-Triggered Flip-Flops with Preset & Clear
*
* The F Logic Data Book, 1987, TI
* tdn	07/05/89	Update interface and model names
*
.subckt 74F112  CLK PREBAR CLRBAR J K Q QBAR
+	optional: DPWR=$G_DPWR DGND=$G_DGND
+	params: MNTYMXDLY=0 IO_LEVEL=0
UBUF bufa(2) DPWR DGND
+	J K   J_BUF K_BUF 
+	D0_GATE IO_F IO_LEVEL={IO_LEVEL} 
UB1 bufa(2) DPWR DGND
+	J_BUF K_BUF   J1 K1 
+	D_F112_1 IO_F MNTYMXDLY={MNTYMXDLY} 
UB2 bufa(2) DPWR DGND
+	J_BUF K_BUF   J1 K1 
+	D0_GATE IO_F 
U1 jkff(1) DPWR DGND
+	PREBAR CLRBAR CLK   J1 K1   Q QBAR 
+	D_F112_2 IO_F MNTYMXDLY={MNTYMXDLY} IO_LEVEL={IO_LEVEL} 
.ends
*
.model D_F112_1 ugate (
+	tplhmn=1.5ns	tplhmx=1.5ns
+	)
.model D_F112_2 ueff (
+	tppcqlhmn=1.2ns	tppcqlhty=4.1ns
+	tppcqlhmx=7.5ns	tppcqhlmn=1.2ns
+	tppcqhlty=4.1ns	tppcqhlmx=7.5ns
+	tpclkqlhmn=1.2ns	tpclkqlhty=4.6ns
+	tpclkqlhmx=7.5ns	tpclkqhlmn=1.2ns
+	tpclkqhlty=4.6ns	tpclkqhlmx=7.5ns
+	twclkhmx=5ns	twclkhty=5ns
+	twclklmx=5ns	twclklty=5ns
+	twpclmx=5ns	twpclty=5ns
+	tsudclkmx=3.5ns	tsudclkty=3.5ns
+	tsupcclkhmx=5ns	tsupcclkhty=5ns
+	)
*$
*-------------------------------------------------------------------------
* 74F113  Dual J-K Negative-Edge-Triggered Flip-Flops with Preset
*
* The F Logic Data Book, 1987, TI
* tdn	07/05/89	Update interface and model names
*
.subckt 74F113  CLK PREBAR J K Q QBAR
+	optional: DPWR=$G_DPWR DGND=$G_DGND
+	params: MNTYMXDLY=0 IO_LEVEL=0
U1 jkff(1) DPWR DGND
+	PREBAR $D_HI CLK   J K   Q QBAR 
+	D_F113 IO_F MNTYMXDLY={MNTYMXDLY} IO_LEVEL={IO_LEVEL} 
.ends
*
.model D_F113 ueff (
+	tppcqlhmn=1.2ns	tppcqlhty=4.1ns
+	tppcqlhmx=7.5ns	tppcqhlmn=1.2ns
+	tppcqhlty=4.1ns	tppcqhlmx=7.5ns
+	tpclkqlhmn=1.2ns	tpclkqlhty=3.6ns
+	tpclkqlhmx=7ns	tpclkqhlmn=1.2ns
+	tpclkqhlty=3.6ns	tpclkqhlmx=7ns
+	twclkhmx=5ns	twclkhty=5ns
+	twclklmx=5ns	twclklty=5ns
+	twpclmx=5ns	twpclty=5ns
+	tsudclkmx=5ns	tsudclkmn=5ns
+	tsupcclkhmx=5ns	tsupcclkhmn=5ns
+	)
*$
*-------------------------------------------------------------------------
* 74F114  Dual J-K Negative-Edge-Triggered Flip-Flops with Preset
*            & Common Clear, & Common Clock
*
* The F Logic Data Book, 1987, TI
* tdn	07/05/89	Update interface and model names
*
.subckt 74F114  CLK CLRBAR 1PREBAR 1J 1K 1Q 1QBAR 2PREBAR 2J 2K 2Q 2QBAR
+	optional: DPWR=$G_DPWR DGND=$G_DGND
+	params: MNTYMXDLY=0 IO_LEVEL=0
UIBUF bufa(4) DPWR DGND
+	CLK CLRBAR 1PREBAR 2PREBAR   CLK_BUF CLRBAR_BUF 1PREB 2PREB 
+	D0_GATE IO_F IO_LEVEL={IO_LEVEL} 
U1 jkff(1) DPWR DGND
+	1PREB CLRBAR_BUF CLK_BUF   1J 1K   1Q 1QBAR 
+	D_F114 IO_F MNTYMXDLY={MNTYMXDLY} IO_LEVEL={IO_LEVEL} 
U2 jkff(1) DPWR DGND
+	2PREB CLRBAR_BUF CLK_BUF   2J 2K   2Q 2QBAR 
+	D_F114 IO_F MNTYMXDLY={MNTYMXDLY} IO_LEVEL={IO_LEVEL} 
.ends
*
.model D_F114 ueff (
+	tppcqlhmn=2.2ns	tppcqlhty=4.1ns
+	tppcqlhmx=7.5ns	tppcqhlmn=2.2ns
+	tppcqhlty=4.1ns	tppcqhlmx=7.5ns
+	tpclkqlhmn=2.2ns	tpclkqlhty=4.6ns
+	tpclkqlhmx=7.5ns	tpclkqhlmn=2.2ns
+	tpclkqhlty=5.1ns	tpclkqhlmx=8.5ns
+	twclkhmx=5ns	twclkhty=5ns
+	twclklmx=5ns	twclklty=5ns
+	twpclmx=5ns	twpclty=5ns
+	tsudclkmx=5ns	tsudclkty=5ns
+	tsupcclkhmx=5ns	tsupcclkhty=5ns
+	)
*$
*---------
* 74F138  DECODER/DEMULTIPLEXER 3-8 LINE
*
* IC15 FAST TTL LOGIC SERIES, 1990, PHILIPS SEMICONDUCTOR
* JLS   8-4-92   REMODELED USING LOGICEXP, PINDLY, AND CONSTRAINT DEVICES
*    
.SUBCKT 74F138   E2_I E0BAR_I E1BAR_I A0_I A1_I A2_I
+ O0BAR_O O1BAR_O O2BAR_O O3BAR_O O4BAR_O O5BAR_O O6BAR_O O7BAR_O
+ OPTIONAL: DPWR=$G_DPWR DGND=$G_DGND
+ PARAMS: MNTYMXDLY=0 IO_LEVEL=0
*
UF138LOG LOGICEXP (6,15) DPWR DGND
+ E2_I E0BAR_I E1BAR_I A0_I A1_I A2_I
+ E2   E0BAR   E1BAR   A0   A1   A2   ENABLE
+ O0BAR O1BAR O2BAR O3BAR O4BAR O5BAR O6BAR O7BAR
+ D0_GATE IO_F
+ IO_LEVEL={IO_LEVEL}
+
+ LOGIC:
+   E2     = { E2_I }
+   E0BAR  = { E0BAR_I }
+   E1BAR  = { E1BAR_I }
+   A0     = { A0_I }
+   A1     = { A1_I }
+   A2     = { A2_I }
+   A0BAR  = { ~A0 }
+   A1BAR  = { ~A1 }
+   A2BAR  = { ~A2 }
+   ENABLE = { ~E0BAR & ~E1BAR & E2 }
+   O0BAR  = { ~(ENABLE & A2BAR & A1BAR & A0BAR) }
+   O1BAR  = { ~(ENABLE & A2BAR & A1BAR & A0   ) }
+   O2BAR  = { ~(ENABLE & A2BAR & A1    & A0BAR) }
+   O3BAR  = { ~(ENABLE & A2BAR & A1    & A0   ) }
+   O4BAR  = { ~(ENABLE & A2    & A1BAR & A0BAR) }
+   O5BAR  = { ~(ENABLE & A2    & A1BAR & A0   ) }
+   O6BAR  = { ~(ENABLE & A2    & A1    & A0BAR) }
+   O7BAR  = { ~(ENABLE & A2    & A1    & A0   ) }
*
UF138DLY PINDLY (8,0,7) DPWR DGND
+ O0BAR O1BAR O2BAR O3BAR O4BAR O5BAR O6BAR O7BAR
+ ENABLE E2 E0BAR E1BAR A0 A1 A2
+ O0BAR_O O1BAR_O O2BAR_O O3BAR_O O4BAR_O O5BAR_O O6BAR_O O7BAR_O
+ IO_F
+ MNTYMXDLY={MNTYMXDLY} IO_LEVEL={IO_LEVEL}
+
+ BOOLEAN:
+   ABLE    = { CHANGED(ENABLE,0) &  CHANGED(E2,0) }
+   ABLEBAR = { CHANGED(ENABLE,0) & (CHANGED(E0BAR,0) | CHANGED(E1BAR,0)) }
+   ADDR    = { CHANGED(A0,0) | CHANGED(A1,0) | CHANGED(A2,0) }
+
+ PINDLY:
+   O0BAR_O O1BAR_O O2BAR_O O3BAR_O O4BAR_O O5BAR_O O6BAR_O O7BAR_O = {
+     CASE (
+       ABLEBAR & TRN_HL, DELAY(3.0NS,5.3NS,7.5NS),
+       ADDR    & TRN_LH, DELAY(3.5NS,5.6NS,8.0NS),
+       ABLEBAR & TRN_LH, DELAY(3.5NS,6.4NS,8.0NS),
+       ABLE    & TRN_HL, DELAY(3.5NS,5.6NS,8.5NS),
+       ADDR    & TRN_HL, DELAY(4.0NS,6.1NS,9.0NS),
+       ABLE    & TRN_LH, DELAY(4.0NS,6.2NS,9.0NS),
+       DELAY(4.0NS,6.4NS,9.0NS)
+       )
+     }
*
.ENDS
*
*$
*--------
* 74F139  DECODER/DEMULTIPLEXER 2-4 LINE
*
* IC15 FAST TTL LOGIC SERIES, 1990, PHILIPS SEMICONDUCTORS
* JLS   8-3-92   REMODELED USING LOGICEXP, PINDLY, AND CONSTRAINT DEVICES
*    
.SUBCKT 74F139   EBAR_I A0_I A1_I   O0BAR_O O1BAR_O O2BAR_O O3BAR_O
+ OPTIONAL: DPWR=$G_DPWR DGND=$G_DGND
+ PARAMS: MNTYMXDLY=0 IO_LEVEL=0
*
UF139LOG LOGICEXP (3,7) DPWR DGND
+ EBAR_I A0_I A1_I
+ EBAR   A0   A1
+ O0BAR O1BAR O2BAR O3BAR
+ D0_GATE IO_F
+ IO_LEVEL={IO_LEVEL}
+
+ LOGIC:
+   EBAR   = { EBAR_I }
+   A0     = { A0_I }
+   A1     = { A1_I }
+   A0BAR  = { ~A0 }
+   A1BAR  = { ~A1 }
+   ENABLE = { ~EBAR }
+   O0BAR  = { ~(ENABLE & A1BAR & A0BAR ) }
+   O1BAR  = { ~(ENABLE & A1BAR & A0    ) }
+   O2BAR  = { ~(ENABLE & A1    & A0BAR ) }
+   O3BAR  = { ~(ENABLE & A1    & A0    ) }
*
UF139DLY PINDLY (4,0,3) DPWR DGND
+ O0BAR O1BAR O2BAR O3BAR
+ EBAR A0 A1
+ O0BAR_O O1BAR_O O2BAR_O O3BAR_O
+ IO_F
+ MNTYMXDLY={MNTYMXDLY} IO_LEVEL={IO_LEVEL}
+
+ BOOLEAN:
+   ABLE = { CHANGED(EBAR,0) }
+   ADDR = { CHANGED(A0,0) | CHANGED(A1,0) }
+
+ PINDLY:
+   O0BAR_O O1BAR_O O2BAR_O O3BAR_O = {
+     CASE (
+       ADDR & TRN_LH, DELAY(3.0NS,5.3NS,8.0NS),
+       ADDR & TRN_HL, DELAY(4.0NS,6.1NS,9.0NS),
+       ABLE & TRN_LH, DELAY(3.5NS,5.4NS,8.0NS),
+       ABLE & TRN_HL, DELAY(3.0NS,4.7NS,7.5NS),
+       DELAY(4.0NS,6.1NS,9.0NS)
+       )
+     }
*
.ENDS
*
*$
*---------
* 74F148  PRIORITY ENCODER 8-3 LINE
*
* FAST TTL LOGIC SERIES, 1990, PHILIPS SEMICONDUCTORS
* JLS   8-26-92   REMODELED USING LOGICEXP, PINDLY, AND CONSTRAINT DEVICES
*
.SUBCKT 74F148   IN0_I IN1_I IN2_I IN3_I IN4_I IN5_I IN6_I IN7_I EI_I
+ A0_O A1_O A2_O GS_O EO_O
+ OPTIONAL: DPWR=$G_DPWR DGND=$G_DGND
+ PARAMS: MNTYMXDLY=0 IO_LEVEL=0
*
UF148LOG LOGICEXP (9,14) DPWR DGND
+ IN0_I IN1_I IN2_I IN3_I IN4_I IN5_I IN6_I IN7_I EI_I
+ IN0   IN1   IN2   IN3   IN4   IN5   IN6   IN7   EI
+ A0 A1 A2 GS EO
+ D0_GATE IO_F
+ IO_LEVEL={IO_LEVEL}
+
+ LOGIC:
+ IN0    = { IN0_I }
+ IN1    = { IN1_I }
+ IN2    = { IN2_I }
+ IN3    = { IN3_I }
+ IN4    = { IN4_I }
+ IN5    = { IN5_I }
+ IN6    = { IN6_I }
+ IN7    = { IN7_I }
+ EI     = { EI_I }
+ IN0BAR = { ~IN0 }
+ IN1BAR = { ~IN1 }
+ IN2BAR = { ~IN2 }
+ IN3BAR = { ~IN3 }
+ IN4BAR = { ~IN4 }
+ IN5BAR = { ~IN5 }
+ IN6BAR = { ~IN6 }
+ IN7BAR = { ~IN7 }
+ EIBAR  = { ~EI }
+
+ A0     = { ~(EIBAR & ((IN1BAR & IN2 & IN4 & IN6) |
+                       (IN3BAR & IN4 & IN6) | (IN5BAR & IN6) | IN7BAR)) }
+ A1     = { ~(EIBAR & ((IN2BAR & IN4 & IN5) |
+                       (IN3BAR & IN4 & IN5) | IN6BAR | IN7BAR)) }
+ A2     = { ~(EIBAR & (IN4BAR | IN5BAR | IN6BAR | IN7BAR)) }
+ EO     = { ~(IN0 & IN1 & IN2 & IN3 & IN4 & IN5 & IN6 & IN7 & EIBAR) }
+ GS     = { ~(EO & EIBAR) }
*
UF148DLY PINDLY (5,0,9) DPWR DGND
+ A0 A1 A2 GS EO
+ IN0 IN1 IN2 IN3 IN4 IN5 IN6 IN7 EI
+ A0_O A1_O A2_O GS_O EO_O
+ IO_F
+ MNTYMXDLY={MNTYMXDLY} IO_LEVEL={IO_LEVEL}
+
+ BOOLEAN:
+   DATAHI   = { IN7=='1 & IN6=='1 & IN5=='1 & IN4=='1 &
+                IN3=='1 & IN2=='1 & IN1=='1 & IN0=='1 }
+   ENABLE   = { CHANGED(EI,0) }
+
+ PINDLY:
+   A2_O A1_O A0_O= {
+     CASE (
+       ENABLE & TRN_LH, DELAY(3.5NS,6.0NS, 9.5NS),
+       ENABLE & TRN_HL, DELAY(3.0NS,5.5NS, 9.0NS),
+                TRN_LH, DELAY(3.5NS,6.0NS,10.0NS),
+                TRN_HL, DELAY(4.0NS,6.0NS,12.0NS),
+       DELAY(4.0NS,6.0NS,12.0NS)
+       )
+     }
+   GS_O = {
+     CASE (
+       ENABLE & TRN_LH, DELAY(2.5NS,4.5NS, 8.0NS),
+       ENABLE & TRN_HL, DELAY(3.0NS,5.5NS, 8.5NS),
+                TRN_LH, DELAY(2.0NS,4.0NS,10.0NS),
+                TRN_HL, DELAY(2.0NS,6.0NS, 9.0NS),
+       DELAY(3.0NS,6.0NS,10.0NS)
+       )
+     }
+   EO_O = {
+     CASE (
+       ENABLE & TRN_LH, DELAY(3.0NS,5.0NS, 8.0NS),
+       ENABLE & TRN_HL, DELAY(4.5NS,7.0NS,12.0NS),
+                TRN_LH, DELAY(2.0NS,3.5NS, 7.5NS),
+                TRN_HL, DELAY(2.5NS,4.5NS, 8.5NS),
+       DELAY(4.5NS,7.0NS,12.0NS)
+       )
+     }
*
.ENDS
*
*$
*---------
* 74F151  MULTIPLEXER/DATA SELECTOR 8-1 LINE
*
* FAST TTL LOGIC SERIES, 1990, PHILIPS SEMICONDUCTORS
* TC  08/21/92  REMODELED USING LOGICEXP, PINDLY, & CONSTRAINT DEVICES
*
.SUBCKT 74F151 EBAR_I S0_I S1_I S2_I I0_I I1_I I2_I I3_I I4_I I5_I I6_I I7_I
+ Z_O ZBAR_O
+ OPTIONAL: DPWR=$G_DPWR DGND=$G_DGND
+ PARAMS: MNTYMXDLY=0 IO_LEVEL=0
*
UF151LOG LOGICEXP(12,14) DPWR DGND
+ EBAR_I S0_I S1_I S2_I I0_I I1_I I2_I I3_I I4_I I5_I I6_I I7_I
+ EBAR S0 S1 S2 I0 I1 I2 I3 I4 I5 I6 I7 ZBAR Z
+ D0_GATE IO_F IO_LEVEL={IO_LEVEL}
+ LOGIC:
+   EBAR = { EBAR_I }
+   S0 = { S0_I }
+   S1 = { S1_I }
+   S2 = { S2_I }
+   I0 = { I0_I }
+   I1 = { I1_I }
+   I2 = { I2_I }
+   I3 = { I3_I }
+   I4 = { I4_I }
+   I5 = { I5_I }
+   I6 = { I6_I }
+   I7 = { I7_I }
+   IS0 = { ~S0 }
+   IS1 = { ~S1 }
+   IS2 = { ~S2 }
+   IE = { ~EBAR }
+   II0 = { I0 & IS0 & IS1 & IS2 & IE }
+   II1 = { I1 & S0 & IS1 & IS2 & IE }
+   II2 = { I2 & IS0 & S1 & IS2 & IE }
+   II3 = { I3 & S0 & S1 & IS2 & IE }
+   II4 = { I4 & IS0 & IS1 & S2 & IE }
+   II5 = { I5 & S0 & IS1 & S2 & IE }
+   II6 = { I6 & IS0 & S1 & S2 & IE }
+   II7 = { I7 & S0 & S1 & S2 & IE }
+   ZBAR = { ~(II0 | II1 | II2 | II3 | II4 | II5 | II6 | II7) }
+   Z = { ~ZBAR }
*
UF151DLY PINDLY (2,0,12) DPWR DGND
+ ZBAR Z
+ EBAR S0 S1 S2 I0 I1 I2 I3 I4 I5 I6 I7
+ ZBAR_O Z_O
+ IO_F MNTYMXDLY={MNTYMXDLY} IO_LEVEL={IO_LEVEL}
+ BOOLEAN:
+   DATA = { CHANGED(I0,0) | CHANGED(I1,0) | CHANGED(I2,0) | CHANGED(I3,0) |
+     CHANGED(I4,0) | CHANGED(I5,0) | CHANGED(I6,0) | CHANGED(I7,0) }
+   SELECT = { CHANGED(S0,0) | CHANGED(S1,0) | CHANGED(S2,0) }
+   ENABLE = { CHANGED(EBAR,0) }
+ PINDLY:
+   Z_O = {
+     CASE(
+       SELECT & TRN_LH, DELAY(4NS,7NS,12NS),
+       ENABLE & TRN_LH, DELAY(5.5NS,8NS,11.5NS),
+       SELECT & TRN_HL, DELAY(4.5NS,7NS,10NS),
+       DATA & TRN_LH, DELAY(2.5NS,4.5NS,9NS),
+       ENABLE & TRN_HL, DELAY(4NS,5.5NS,8NS),
+       DATA & TRN_HL, DELAY(3NS,4.5NS,7.5NS),
+       DELAY(5NS,8NS,13NS)
+       )
+     }
+   ZBAR_O = {
+     CASE(
+       SELECT & TRN_LH, DELAY(3.5NS,6.5NS,10NS),
+       ENABLE & TRN_HL, DELAY(4NS,5.5NS,8NS),
+       ENABLE & TRN_LH, DELAY(3.5NS,5NS,7.5NS),
+       SELECT & TRN_HL, DELAY(2NS,4.5NS,7.5NS),
+       DATA & TRN_LH, DELAY(2NS,4NS,7NS),
+       DATA & TRN_HL, DELAY(1NS,2.5NS,5NS),
+       DELAY(4NS,7NS,11NS)
+       )
+     }
*
.ENDS
*
*$
*---------
* 74F151A  MULTIPLEXER/DATA SELECTOR 8-1 LINE
*
* FAST TTL LOGIC SERIES, 1990, PHILIPS SEMICONDUCTORS
* TC  08/28/92  REMODELED USING LOGICEXP, PINDLY, & CONSTRAINT DEVICES
*
.SUBCKT 74F151A EBAR_I S0_I S1_I S2_I I0_I I1_I I2_I I3_I I4_I I5_I I6_I I7_I
+ Z_O ZBAR_O
+ OPTIONAL: DPWR=$G_DPWR DGND=$G_DGND
+ PARAMS: MNTYMXDLY=0 IO_LEVEL=0
*
UF151ALOG LOGICEXP(12,14) DPWR DGND
+ EBAR_I S0_I S1_I S2_I I0_I I1_I I2_I I3_I I4_I I5_I I6_I I7_I
+ EBAR S0 S1 S2 I0 I1 I2 I3 I4 I5 I6 I7 ZBAR Z
+ D0_GATE IO_F IO_LEVEL={IO_LEVEL}
+ LOGIC:
+   EBAR = { EBAR_I }
+   S0 = { S0_I }
+   S1 = { S1_I }
+   S2 = { S2_I }
+   I0 = { I0_I }
+   I1 = { I1_I }
+   I2 = { I2_I }
+   I3 = { I3_I }
+   I4 = { I4_I }
+   I5 = { I5_I }
+   I6 = { I6_I }
+   I7 = { I7_I }
+   IS0 = { ~S0 }
+   IS1 = { ~S1 }
+   IS2 = { ~S2 }
+   IE = { ~EBAR }
+   II0 = { I0 & IS0 & IS1 & IS2 & IE }
+   II1 = { I1 & S0 & IS1 & IS2 & IE }
+   II2 = { I2 & IS0 & S1 & IS2 & IE }
+   II3 = { I3 & S0 & S1 & IS2 & IE }
+   II4 = { I4 & IS0 & IS1 & S2 & IE }
+   II5 = { I5 & S0 & IS1 & S2 & IE }
+   II6 = { I6 & IS0 & S1 & S2 & IE }
+   II7 = { I7 & S0 & S1 & S2 & IE }
+   ZBAR = { ~(II0 | II1 | II2 | II3 | II4 | II5 | II6 | II7) }
+   Z = { ~ZBAR }
*
UF151ADLY PINDLY (2,0,12) DPWR DGND
+ ZBAR Z
+ EBAR S0 S1 S2 I0 I1 I2 I3 I4 I5 I6 I7
+ ZBAR_O Z_O
+ IO_F MNTYMXDLY={MNTYMXDLY} IO_LEVEL={IO_LEVEL}
+ BOOLEAN:
+   DATA = { CHANGED(I0,0) | CHANGED(I1,0) | CHANGED(I2,0) | CHANGED(I3,0) |
+     CHANGED(I4,0) | CHANGED(I5,0) | CHANGED(I6,0) | CHANGED(I7,0) }
+   SELECT = { CHANGED(S0,0) | CHANGED(S1,0) | CHANGED(S2,0) }
+   ENABLE = { CHANGED(EBAR,0) }
+ PINDLY:
+   Z_O = {
+     CASE(
+       SELECT & TRN_LH, DELAY(4NS,6.5NS,11NS),
+       ENABLE & TRN_LH, DELAY(3.5NS,6.5NS,9.5NS),
+       SELECT & TRN_HL, DELAY(3.5NS,6NS,9.5NS),
+       ENABLE & TRN_HL, DELAY(3NS,5NS,7.5NS),
+       DATA, DELAY(2.5NS,4.5NS,7.5NS),
+       DELAY(5NS,7NS,12NS)
+       )
+     }
+   ZBAR_O = {
+     CASE(
+       SELECT & TRN_LH, DELAY(3NS,5.5NS,9.5NS),
+       SELECT & TRN_HL, DELAY(2NS,4.5NS,7.5NS),
+       DATA & TRN_LH, DELAY(2NS,4NS,7.5NS),
+       ENABLE & TRN_LH, DELAY(2.5NS,4.5NS,7NS),
+       ENABLE & TRN_HL, DELAY(1.5NS,3.5NS,6NS),
+       DATA & TRN_HL, DELAY(1NS,2NS,5NS),
+       DELAY(4NS,6NS,10NS)
+       )
+     }
*
.ENDS
*
*$
*---------
* 74F153  DUAL 4-LINE TO 1-LINE DATA SELECTORS/MULTIPLEXERS
*
* FAST Logic Data Book, 1990, PHILIPS SEMICONDUCTORS
* JSW   8/12/92   Remodeled using LOGICEXP, PINDLY, & CONSTRAINT devices
*
.SUBCKT 74F153 G1BAR_I G2BAR_I A_I B_I 1C0_I 1C1_I 1C2_I  1C3_I
+ 2C0_I 2C1_I 2C2_I 2C3_I Y1_O Y2_O
+ OPTIONAL: DPWR=$G_DPWR DGND=$G_DGND
+ PARAMS: MNTYMXDLY=0 IO_LEVEL=0
*
UF153LOG LOGICEXP(12,14) DPWR DGND
+ G1BAR_I G2BAR_I A_I B_I 1C0_I 1C1_I 1C2_I 1C3_I 2C0_I 2C1_I 2C2_I 2C3_I
+ G1BAR G2BAR A B 1C0 1C1 1C2  1C3 2C0 2C1 2C2 2C3 Y1 Y2
+ D0_GATE IO_F IO_LEVEL={IO_LEVEL}
+ LOGIC:
+   G1BAR = { G1BAR_I }
+   G2BAR = { G2BAR_I }
+   A = { A_I }
+   B = { B_I }
+   1C0 = { 1C0_I }
+   1C1 = { 1C1_I }
+   1C2 = { 1C2_I }
+   1C3 = { 1C3_I }
+   2C0 = { 2C0_I }
+   2C1 = { 2C1_I }
+   2C2 = { 2C2_I }
+   2C3 = { 2C3_I }
+   G1 = { ~G1BAR }
+   G2 = { ~G2BAR }
+   ABAR = { ~A }
+   BBAR = { ~B }
+   I0 = { G1 & BBAR & ABAR & 1C0 }
+   I1 = { G1 & BBAR & A    & 1C1 }
+   I2 = { G1 & B    & ABAR & 1C2 }
+   I3 = { G1 & B    & A    & 1C3 }
+   I4 = { G2 & BBAR & ABAR & 2C0 }
+   I5 = { G2 & BBAR & A    & 2C1 }
+   I6 = { G2 & B    & ABAR & 2C2 }
+   I7 = { G2 & B    & A    & 2C3 }
+   Y1 = { I0 | I1 | I2 | I3 }
+   Y2 = { I4 | I5 | I6 | I7 }
*
UF153DLY PINDLY (2,0,12) DPWR DGND
+ Y1 Y2
+ G1BAR G2BAR A B 1C0 1C1 1C2 1C3 2C0 2C1 2C2 2C3
+ Y1_O Y2_O
+ IO_F
+ MNTYMXDLY = {MNTYMXDLY} IO_LEVEL = {IO_LEVEL}
+ BOOLEAN:
+   DATA1 = { (CHANGED(1C0,0) | CHANGED(1C1,0) | CHANGED(1C2,0) |
+     CHANGED(1C3,0)) }
+   DATA2 = { (CHANGED(2C0,0) | CHANGED(2C1,0) | CHANGED(2C2,0) |
+     CHANGED(2C3,0)) }
+   SELECT = { CHANGED(A,0) | CHANGED(B,0) }
+ PINDLY:
+   Y1_O = {
+     CASE(
+       SELECT, DELAY(4.5NS,8NS,12NS),
+       CHANGED(G1BAR,0) & TRN_LH, DELAY(4.5NS,7.5NS,10.5NS),
+       CHANGED(G1BAR,0) & TRN_HL, DELAY(3.5NS,5.5NS,8NS),
+       DATA1 & TRN_LH, DELAY(2.5NS,4.5NS,8NS),
+       DATA1 & TRN_HL, DELAY(2.5NS,5NS,8NS),
+       DELAY(5NS,9NS,13NS)
+       )
+     }
+   Y2_O = {
+     CASE(
+       SELECT, DELAY(4.5NS,8NS,12NS),
+       CHANGED(G2BAR,0) & TRN_LH, DELAY(4.5NS,7.5NS,10.5NS),
+       CHANGED(G2BAR,0) & TRN_HL, DELAY(3.5NS,5.5NS,8NS),
+       DATA2 & TRN_LH, DELAY(2.5NS,4.5NS,8NS),
+       DATA2 & TRN_HL, DELAY(2.5NS,5NS,8NS),
+       DELAY(5NS,9NS,13NS)
+       )
+     }
*
.ENDS
*
*$
*---------
* 74F154  DECODER/DEMULTIPLEXER 2-4 LINE
*
* IC15 FAST TTL LOGIC SERIES, 990, PHILIPS SEMICONDUCTORS
* JLS   8-6-92   REMODELED USING LOGICEXP, PINDLY, AND CONSTRAINT DEVICES
*    
.SUBCKT 74F154   E0BAR_I E1BAR_I A0_I A1_I A2_I A3_I
+ Y0_O Y1_O  Y2_O  Y3_O  Y4_O  Y5_O  Y6_O  Y7_O
+ Y8_O Y9_O Y10_O Y11_O Y12_O Y13_O Y14_O Y15_O
+ OPTIONAL: DPWR=$G_DPWR DGND=$G_DGND
+ PARAMS: MNTYMXDLY=0 IO_LEVEL=0
*
UF154LOG LOGICEXP (6,21) DPWR DGND
+ E0BAR_I E1BAR_I A0_I A1_I A2_I A3_I
+ ENABLE          A0   A1   A2   A3
+ Y0 Y1 Y2 Y3 Y4 Y5 Y6 Y7 Y8 Y9 Y10 Y11 Y12 Y13 Y14 Y15
+ D0_GATE IO_F
+ IO_LEVEL={IO_LEVEL}
+
+ LOGIC:
+   E0BAR  = { E0BAR_I }
+   E1BAR  = { E1BAR_I }
+   ENABLE = { ~(E0BAR | E1BAR) }
+   A0     = { A0_I }
+   A1     = { A1_I }
+   A2     = { A2_I }
+   A3     = { A3_I }
+   A0BAR  = { ~A0 }
+   A1BAR  = { ~A1 }
+   A2BAR  = { ~A2 }
+   A3BAR  = { ~A3 }
+   Y0     = { ~(ENABLE & A3BAR & A2BAR & A1BAR & A0BAR) }
+   Y1     = { ~(ENABLE & A3BAR & A2BAR & A1BAR & A0   ) }
+   Y2     = { ~(ENABLE & A3BAR & A2BAR & A1    & A0BAR) }
+   Y3     = { ~(ENABLE & A3BAR & A2BAR & A1    & A0   ) }
+   Y4     = { ~(ENABLE & A3BAR & A2    & A1BAR & A0BAR) }
+   Y5     = { ~(ENABLE & A3BAR & A2    & A1BAR & A0   ) }
+   Y6     = { ~(ENABLE & A3BAR & A2    & A1    & A0BAR) }
+   Y7     = { ~(ENABLE & A3BAR & A2    & A1    & A0   ) }
+   Y8     = { ~(ENABLE & A3    & A2BAR & A1BAR & A0BAR) }
+   Y9     = { ~(ENABLE & A3    & A2BAR & A1BAR & A0   ) }
+   Y10    = { ~(ENABLE & A3    & A2BAR & A1    & A0BAR) }
+   Y11    = { ~(ENABLE & A3    & A2BAR & A1    & A0   ) }
+   Y12    = { ~(ENABLE & A3    & A2    & A1BAR & A0BAR) }
+   Y13    = { ~(ENABLE & A3    & A2    & A1BAR & A0   ) }
+   Y14    = { ~(ENABLE & A3    & A2    & A1    & A0BAR) }
+   Y15    = { ~(ENABLE & A3    & A2    & A1    & A0   ) }
*
UF154DLY PINDLY (16,0,5) DPWR DGND
+ Y0 Y1 Y2 Y3 Y4 Y5 Y6 Y7 Y8 Y9 Y10 Y11 Y12 Y13 Y14 Y15
+ ENABLE A0 A1 A2 A3
+ Y0_O Y1_O  Y2_O  Y3_O  Y4_O  Y5_O  Y6_O  Y7_O
+ Y8_O Y9_O Y10_O Y11_O Y12_O Y13_O Y14_O Y15_O
+ IO_F
+ MNTYMXDLY={MNTYMXDLY} IO_LEVEL={IO_LEVEL}
+
+ BOOLEAN:
+   ABLE = { CHANGED(ENABLE,0) }
+   ADDR = { CHANGED(A0,0) | CHANGED(A1,0) | CHANGED(A2,0) | CHANGED(A3,0) }
+
+ PINDLY:
+   Y0_O Y1_O  Y2_O  Y3_O  Y4_O  Y5_O  Y6_O  Y7_O
+   Y8_O Y9_O Y10_O Y11_O Y12_O Y13_O Y14_O Y15_O = {
+     CASE (
+       ABLE & TRN_LH, DELAY(1.5NS,4.0NS, 8.0NS),
+       ABLE & TRN_HL, DELAY(3.5NS,6.0NS, 9.5NS),
+       ADDR & TRN_LH, DELAY(1.5NS,5.0NS,10.5NS),
+       ADDR & TRN_HL, DELAY(3.0NS,6.5NS,10.5NS),
+       DELAY(3.5NS,6.5NS,10.5NS)
+       )
+     }
*
.ENDS
*
*$
*---------
* 74F157  QUADRUPLE 2-LINE TO 1-LINE DATA SELECTORS/MULTIPLEXERS
*
* FAST Logic Data Book, 1990, PHILIPS SEMICONDUCTORS
* JSW   8/25/92   Remodeled using LOGICEXP, PINDLY, & CONSTRAINT devices
*
.SUBCKT 74F157 GBAR_I 1A_I 1B_I 2A_I 2B_I 3A_I 3B_I 4A_I 4B_I SEL_I
+ Y1_O Y2_O Y3_O Y4_O
+ OPTIONAL: DPWR=$G_DPWR DGND=$G_DGND
+ PARAMS: MNTYMXDLY=0 IO_LEVEL=0
*
UF157LOG LOGICEXP(10,14) DPWR DGND
+ GBAR_I 1A_I 1B_I 2A_I 2B_I 3A_I 3B_I 4A_I 4B_I SEL_I
+ GBAR 1A 1B 2A 2B 3A 3B 4A 4B SEL Y1 Y2 Y3 Y4
+ D0_GATE IO_F IO_LEVEL={IO_LEVEL}
+ LOGIC:
+   GBAR = { GBAR_I }
+   1A = { 1A_I }
+   1B = { 1B_I }
+   2A = { 2A_I }
+   2B = { 2B_I }
+   3A = { 3A_I }
+   3B = { 3B_I }
+   4A = { 4A_I }
+   4B = { 4B_I }
+   SEL = { SEL_I }
+   SELBAR = { ~SEL }
+   G = { ~GBAR }
+   Y1 = { (1A & SELBAR & G) | (1B & SEL & G) }
+   Y2 = { (2A & SELBAR & G) | (2B & SEL & G) }
+   Y3 = { (3A & SELBAR & G) | (3B & SEL & G) }
+   Y4 = { (4A & SELBAR & G) | (4B & SEL & G) }
*
UF157DLY PINDLY (4,0,10) DPWR DGND
+ Y1 Y2 Y3 Y4
+ GBAR 1A 1B 2A 2B 3A 3B 4A 4B SEL
+ Y1_O Y2_O Y3_O Y4_O
+ IO_F
+ MNTYMXDLY = {MNTYMXDLY} IO_LEVEL = {IO_LEVEL}
+ BOOLEAN:
+   DATA = { CHANGED(1A,0) | CHANGED(1B,0) | CHANGED(2A,0) | CHANGED(2B,0) |
+     CHANGED(3A,0) | CHANGED(3B,0) | CHANGED(4A,0) | CHANGED(4B,0) }
+   SELECT = { CHANGED(SEL,0) }
+   ENABLE = { CHANGED(GBAR,0) }
+ PINDLY:
+   Y1_O Y2_O Y3_O Y4_O = {
+     CASE(
+       SELECT & TRN_LH, DELAY(4.5NS,8NS,15NS),
+       ENABLE & TRN_LH, DELAY(5NS,7.5NS,11.5NS),
+       SELECT & TRN_HL, DELAY(3.5NS,6NS,9NS),
+       ENABLE & TRN_HL, DELAY(3.8NS,5NS,8NS),
+       DATA & TRN_LH, DELAY(3NS,4.5NS,8NS),
+       DATA & TRN_HL, DELAY(1.5NS,3.5NS,7NS),
+       DELAY(6NS,9NS,16NS)
+       )
+     }
*
.ENDS
*
*$
*---------
* 74F157A  QUADRUPLE 2-LINE TO 1-LINE DATA SELECTORS/MULTIPLEXERS
*
* FAST Logic Data Book, 1990, PHILIPS SEMICONDUCTORS
* JSW   8/25/92   Remodeled using LOGICEXP, PINDLY, & CONSTRAINT devices
*
.SUBCKT 74F157A GBAR_I 1A_I 1B_I 2A_I 2B_I 3A_I 3B_I 4A_I 4B_I SEL_I
+ Y1_O Y2_O Y3_O Y4_O
+ OPTIONAL: DPWR=$G_DPWR DGND=$G_DGND
+ PARAMS: MNTYMXDLY=0 IO_LEVEL=0
*
UF157ALOG LOGICEXP(10,14) DPWR DGND
+ GBAR_I 1A_I 1B_I 2A_I 2B_I 3A_I 3B_I 4A_I 4B_I SEL_I
+ GBAR 1A 1B 2A 2B 3A 3B 4A 4B SEL Y1 Y2 Y3 Y4
+ D0_GATE IO_F IO_LEVEL={IO_LEVEL}
+ LOGIC: