* Library of 74HC Family Digital Models
*
*  Copyright OrCAD, Inc. 1998 All Rights Reserved.
*
*
* $Revision:   1.3  $
* $Author:   RPEREZ  $
* $Date:   16 Apr 1998 14:34:06  $
*
*
*$
*---------
* 74HC00  Quadruple 2-input Positive-Nand Gates
*
* The High-Speed CMOS Logic Data Book, 1988, TI
* tdn   06/23/89	Update interface and model names
*
.subckt 74HC00  A B Y
+	optional: DPWR=$G_DPWR DGND=$G_DGND
+	params: MNTYMXDLY=0 IO_LEVEL=0
U1 nand(2) DPWR DGND
+	A B   Y 
+	D_HC00 IO_HC MNTYMXDLY={MNTYMXDLY} IO_LEVEL={IO_LEVEL} 
.ends
*
.model D_HC00 ugate (
+	tplhty=9ns	tplhmx=23ns
+	tphlty=9ns	tphlmx=23ns
+	)
*$
*---------
* 74HC01  Quadruple 2-input Positive-Nand Gates with Open-Collector Outputs
*
* The High-Speed CMOS Logic Data Book, 1988, TI
* tdn	06/23/89	Update interface and model names
*
.subckt 74HC01  A B Y
+	optional: DPWR=$G_DPWR DGND=$G_DGND
+	params: MNTYMXDLY=0 IO_LEVEL=0
U1 nand(2) DPWR DGND
+	A B   Y 
+	D_HC01 IO_HC_OC MNTYMXDLY={MNTYMXDLY} IO_LEVEL={IO_LEVEL} 
.ends
*
.model D_HC01 ugate (
+	tplhty=13ns	tplhmx=31ns
+	tphlty=10ns	tphlmx=25ns
+	)
*$
*---------
* 74HC02  Quadruple 2-input Positive-Nor Gates
*
* The High-Speed CMOS Logic Data Book, 1988, TI
* tdn	06/23/89	Update interface and model names
*
.subckt 74HC02  A B Y
+	optional: DPWR=$G_DPWR DGND=$G_DGND
+	params: MNTYMXDLY=0 IO_LEVEL=0
U1 nor(2) DPWR DGND
+	A B   Y 
+	D_HC02 IO_HC MNTYMXDLY={MNTYMXDLY} IO_LEVEL={IO_LEVEL} 
.ends
*
.model D_HC02 ugate (
+	tplhty=9ns	tplhmx=23ns
+	tphlty=9ns	tphlmx=23ns
+	)
*$
*---------
* 74HC03  Quadruple 2-input Positive-Nand Gates with Open-Collector Outputs
*
* The High-Speed CMOS Logic Data Book, 1988, TI
* tdn	06/23/89	Update interface and model names
*
.subckt 74HC03  A B Y
+	optional: DPWR=$G_DPWR DGND=$G_DGND
+	params: MNTYMXDLY=0 IO_LEVEL=0
U1 nand(2) DPWR DGND
+	A B   Y 
+	D_HC03 IO_HC_OC MNTYMXDLY={MNTYMXDLY} IO_LEVEL={IO_LEVEL} 
.ends
*
.model D_HC03 ugate (
+	tplhty=13ns	tplhmx=31ns
+	tphlty=10ns	tphlmx=25ns
+	)
*$
*---------
* 74HC04  Hex Inverters
*
* The High-Speed CMOS Logic Data Book, 1988, TI
* tdn	06/23/89	Update interface and model names
*
.subckt 74HC04  A Y
+	optional: DPWR=$G_DPWR DGND=$G_DGND
+	params: MNTYMXDLY=0 IO_LEVEL=0
U1 inv DPWR DGND
+	A   Y 
+	D_H04C IO_HC MNTYMXDLY={MNTYMXDLY} IO_LEVEL={IO_LEVEL} 
.ends
*
.model D_H04C ugate (
+	tplhty=9ns	tplhmx=24ns
+	tphlty=9ns	tphlmx=24ns
+	)
*$
*---------
* 74HC05  Hex Inverters with Open-Collector Outputs
*
* The High-Speed CMOS Logic Data Book, 1988, TI
* tdn 	06/23/89	Update interface and model names
*
.subckt 74HC05  A Y
+	optional: DPWR=$G_DPWR DGND=$G_DGND
+	params: MNTYMXDLY=0 IO_LEVEL=0
U1 inv DPWR DGND
+	A   Y 
+	D_HC05 IO_HC_OC MNTYMXDLY={MNTYMXDLY} IO_LEVEL={IO_LEVEL} 
.ends
*
.model D_HC05 ugate (
+	tplhty=13ns	tplhmx=29ns
+	tphlty=9ns	tphlmx=21ns
+	)
*$
*---------
* 74HC08  Quadruple 2-input Positive-And Gates
*
* The High-Speed CMOS Logic Data Book, 1988, TI
* tdn	06/23/89	Update interface and model names
*
.subckt 74HC08  A B Y
+	optional: DPWR=$G_DPWR DGND=$G_DGND
+	params: MNTYMXDLY=0 IO_LEVEL=0
U1 and(2) DPWR DGND
+	A B   Y 
+	D_HC08 IO_HC MNTYMXDLY={MNTYMXDLY} IO_LEVEL={IO_LEVEL} 
.ends
*
.model D_HC08 ugate (
+	tplhty=10ns	tplhmx=25ns
+	tphlty=10ns	tphlmx=25ns
+	)
*$
*---------
* 74HC09  Quadruple 2-input Positive-And Gates with Open-Collector Outputs
*
* The High-Speed CMOS Logic Data Book, 1988, TI
* tdn 	06/23/89	Update interface and model names
*
.subckt 74HC09  A B Y
+	optional: DPWR=$G_DPWR DGND=$G_DGND
+	params: MNTYMXDLY=0 IO_LEVEL=0
U1 and(2) DPWR DGND
+	A B   Y 
+	D_HC09 IO_HC_OC MNTYMXDLY={MNTYMXDLY} IO_LEVEL={IO_LEVEL} 
.ends
*
.model D_HC09 ugate (
+	tplhty=13ns	tplhmx=31ns
+	tphlty=10ns	tphlmx=25ns
+	)
*$
*---------
* 74HC10  Triple 3-input Positive-Nand Gates
*
* The High-Speed CMOS Logic Data Book, 1988, TI
* tdn	06/23/89	Update interface and model names
*
.subckt 74HC10  A B C Y
+	optional: DPWR=$G_DPWR DGND=$G_DGND
+	params: MNTYMXDLY=0 IO_LEVEL=0
U1 nand(3) DPWR DGND
+	A B C   Y 
+	D_HC10 IO_HC MNTYMXDLY={MNTYMXDLY} IO_LEVEL={IO_LEVEL} 
.ends
*
.model D_HC10 ugate (
+	tplhty=10ns	tplhmx=24ns
+	tphlty=10ns	tphlmx=24ns
+	)
*$
*---------
* 74HC11  Triple 3-input Positive-And Gates
*
* The High-Speed CMOS Logic Data Book, 1988, TI
* tdn	06/23/89	Update interface and model names
*
.subckt 74HC11  A B C Y
+	optional: DPWR=$G_DPWR DGND=$G_DGND
+	params: MNTYMXDLY=0 IO_LEVEL=0
U1 and(3) DPWR DGND
+	A B C   Y 
+	D_HC11 IO_HC MNTYMXDLY={MNTYMXDLY} IO_LEVEL={IO_LEVEL} 
.ends
*
.model D_HC11 ugate (
+	tplhty=10ns	tplhmx=25ns
+	tphlty=10ns	tphlmx=25ns
+	)
*$
*---------
* 74HC14  Hex Schmitt-Trigger Inverters
*
* The High-Speed CMOS Logic Data Book, 1988, TI
* tdn 	06/26/89	Update interface and model names
*
.subckt 74HC14  A Y
+	optional: DPWR=$G_DPWR DGND=$G_DGND
+	params: MNTYMXDLY=0 IO_LEVEL=0
* Note: These devices are modeled as simple inverters
*       Hysteresis is modeled in the AtoD interface
*
U1 inv DPWR DGND
+	A   Y 
+	D_HC14 IO_HC_ST MNTYMXDLY={MNTYMXDLY} IO_LEVEL={IO_LEVEL} 
.ends
*
.model D_HC14 ugate (
+	tplhty=12ns	tplhmx=31ns
+	tphlty=12ns	tphlmx=31ns
+	)
*$
*---------
* 74HC20  Dual 4-input Positive-Nand Gates
*
* The High-Speed CMOS Logic Data Book, 1988, TI
* tdn 	06/26/89	Update interface and model names
*
.subckt 74HC20  A B C D Y
+	optional: DPWR=$G_DPWR DGND=$G_DGND
+	params: MNTYMXDLY=0 IO_LEVEL=0
U1 nand(4) DPWR DGND
+	A B C D   Y 
+	D_HC20 IO_HC MNTYMXDLY={MNTYMXDLY} IO_LEVEL={IO_LEVEL} 
.ends
*
.model D_HC20 ugate (
+	tplhty=14ns	tplhmx=28ns
+	tphlty=14ns	tphlmx=28ns
+	)
*$
*---------
* 74HC21  Dual 4-input Positive-And Gates
*
* The High-Speed CMOS Logic Data Book, 1988, TI
* tdn 	06/26/89	Update interface and model names
*
.subckt 74HC21  A B C D Y
+	optional: DPWR=$G_DPWR DGND=$G_DGND
+	params: MNTYMXDLY=0 IO_LEVEL=0
U1 and(4) DPWR DGND
+	A B C D   Y 
+	D_HC21 IO_HC MNTYMXDLY={MNTYMXDLY} IO_LEVEL={IO_LEVEL} 
.ends
*
.model D_HC21 ugate (
+	tplhty=14ns	tplhmx=28ns
+	tphlty=14ns	tphlmx=28ns
+	)
*$
*---------
* 74HC27  Triple 3-input Positive-Nor Gates
* 
* The High-Speed CMOS Logic Data Book, 1988, TI
* tdn 	06/26/89	Update interface and model names
*
.subckt 74HC27  A B C Y
+	optional: DPWR=$G_DPWR DGND=$G_DGND
+	params: MNTYMXDLY=0 IO_LEVEL=0
U1 nor(3) DPWR DGND
+	A B C   Y 
+	D_HC27 IO_HC MNTYMXDLY={MNTYMXDLY} IO_LEVEL={IO_LEVEL} 
.ends
*
.model D_HC27 ugate (
+	tplhty=10ns	tplhmx=23ns
+	tphlty=10ns	tphlmx=23ns
+	)
*$
*---------
* 74HC30  8-input Positive-Nand Gates
*
* The High-Speed CMOS Logic Data Book, 1988, TI
* tdn 	06/26/89	Update interface and model names
*
.subckt 74HC30  A B C D E F G H Y
+	optional: DPWR=$G_DPWR DGND=$G_DGND
+	params: MNTYMXDLY=0 IO_LEVEL=0
U1 nand(8) DPWR DGND
+	A B C D E F G H   Y 
+	D_HC30 IO_HC MNTYMXDLY={MNTYMXDLY} IO_LEVEL={IO_LEVEL} 
.ends
*
.model D_HC30 ugate (
+	tplhty=15ns	tplhmx=33ns
+	tphlty=15ns	tphlmx=33ns
+	)
*$
*---------
* 74HC32  Quadruple 2-input Positive-Or Gates
*
* The High-Speed CMOS Logic Data Book, 1988, TI
* tdn 	06/26/89	Update interface and model names
*
.subckt 74HC32  A B Y
+	optional: DPWR=$G_DPWR DGND=$G_DGND
+	params: MNTYMXDLY=0 IO_LEVEL=0
U1 or(2) DPWR DGND
+	A B   Y 
+	D_HC32 IO_HC MNTYMXDLY={MNTYMXDLY} IO_LEVEL={IO_LEVEL} 
.ends
*
.model D_HC32 ugate (
+	tplhty=10ns	tplhmx=25ns
+	tphlty=10ns	tphlmx=25ns
+	)
*$
*---------
* 74HC35  Hex Noninverters with Open-Collector Outputs
*
* The High-Speed CMOS Logic Data Book, 1988, TI
* tdn 	06/26/89	Update interface and model names
*
.subckt 74HC35  A Y
+	optional: DPWR=$G_DPWR DGND=$G_DGND
+	params: MNTYMXDLY=0 IO_LEVEL=0
U1 buf DPWR DGND
+	A   Y 
+	D_HC35 IO_HC_OC MNTYMXDLY={MNTYMXDLY} IO_LEVEL={IO_LEVEL} 
.ends
*
.model D_HC35 ugate (
+	tplhmx=28ns	tphlmx=28ns
+	)
*$
*---------
* 74HC36  Quadruple 2-input Positive-Nor Gate
*
* The High-Speed CMOS Logic Data Book, 1988, TI
* tdn	08/10/89	Update interface and model names
*
.subckt 74HC36  A B Y
+	optional: DPWR=$G_DPWR DGND=$G_DGND
+	params: MNTYMXDLY=0 IO_LEVEL=0
U1 nor(2) DPWR DGND
+	A B   Y 
+	D_HC36 IO_HC MNTYMXDLY={MNTYMXDLY} IO_LEVEL={IO_LEVEL} 
.ends
*
.model D_HC36 ugate (
+	tphlty=10ns	tphlmx=25ns
+	tplhty=10ns	tplhmx=25ns
+	)
*$
*--------
* 74HC42  DECODER BCD-DECIMAL 4-10 LINE
*
* HIGH-SPEED CMOS LOGIC DATA BOOK, AUG 1989, TI
* JLS   7-30-92   REMODELED USING LOGICEXP, PINDLY, AND CONSTRAINT DEVICES
*
.SUBCKT 74HC42   A_I B_I C_I D_I
+ Y0_O Y1_O Y2_O Y3_O Y4_O Y5_O Y6_O Y7_O Y8_O Y9_O
+ OPTIONAL: DPWR=$G_DPWR DGND=$G_DGND
+ PARAMS: MNTYMXDLY=0 IO_LEVEL=0
*
UHC42LOG LOGICEXP (4,14) DPWR DGND
+ A_I B_I C_I D_I
+ A   B   C   D
+ Y0 Y1 Y2 Y3 Y4 Y5 Y6 Y7 Y8 Y9
+ D0_GATE IO_HC
+ IO_LEVEL={IO_LEVEL}
+
+ LOGIC:
+   A    = { A_I }
+   B    = { B_I }
+   C    = { C_I }
+   D    = { D_I }
+   ABAR = { ~A }
+   BBAR = { ~B }
+   CBAR = { ~C }
+   DBAR = { ~D }
+   Y0   = { ~(DBAR & CBAR & BBAR & ABAR ) }
+   Y1   = { ~(DBAR & CBAR & BBAR & A    ) }
+   Y2   = { ~(DBAR & CBAR & B    & ABAR ) }
+   Y3   = { ~(DBAR & CBAR & B    & A    ) }
+   Y4   = { ~(DBAR & C    & BBAR & ABAR ) }
+   Y5   = { ~(DBAR & C    & BBAR & A    ) }
+   Y6   = { ~(DBAR & C    & B    & ABAR ) }
+   Y7   = { ~(DBAR & C    & B    & A    ) }
+   Y8   = { ~(D    & CBAR & BBAR & ABAR ) }
+   Y9   = { ~(D    & CBAR & BBAR & A    ) }
*
UHC42DLY PINDLY (10,0,4) DPWR DGND
+ Y0 Y1 Y2 Y3 Y4 Y5 Y6 Y7 Y8 Y9
+ A B C D
+ Y0_O Y1_O Y2_O Y3_O Y4_O Y5_O Y6_O Y7_O Y8_O Y9_O
+ IO_HC
+ MNTYMXDLY={MNTYMXDLY} IO_LEVEL={IO_LEVEL}
+
+ PINDLY:
+   Y0_O Y1_O Y2_O Y3_O Y4_O
+   Y5_O Y6_O Y7_O Y8_O Y9_O = { DELAY(-1,18NS,38NS) }
*
.ENDS
*
*$
*---------
* 75HC51  And-Or-Invert Gates
*
* The High-Speed CMOS Logic Data Book, 1988, TI
* tdn	06/27/89	Update interface and model names
*
.subckt 74HC51  A1 B1 C1 D1 E1 F1 Y1 A2 B2 C2 D2 Y2
+	optional: DPWR=$G_DPWR DGND=$G_DGND
+	params: MNTYMXDLY=0 IO_LEVEL=0
U1 aoi(3,2) DPWR DGND
+	A1 B1 C1 D1 E1 F1   Y1 
+	D_HC51_1 IO_HC MNTYMXDLY={MNTYMXDLY} IO_LEVEL={IO_LEVEL} 
U2 aoi(2,2) DPWR DGND
+	A2 B2 C2 D2   Y2 
+	D_HC51_1 IO_HC MNTYMXDLY={MNTYMXDLY} IO_LEVEL={IO_LEVEL} 
.ends
*
.model D_HC51_1 ugate (
+	tplhty=15ns	tplhmx=35ns
+	tphlty=15ns	tphlmx=35ns
+	)
*$
*---------
* 74HC73  Dual J-K Flip-Flops with Clear	 
*
* The High-Speed CMOS Logic Data Book, 1988, TI
* tdn	06/28/89	Update interface and model names
*
.subckt 74HC73  CLK CLRBAR J K Q QBAR
+	optional: DPWR=$G_DPWR DGND=$G_DGND
+	params: MNTYMXDLY=0 IO_LEVEL=0
U1 jkff(1) DPWR DGND
+	$D_HI CLRBAR CLK   J K   Q QBAR 
+	D_HC73 IO_HC MNTYMXDLY={MNTYMXDLY} IO_LEVEL={IO_LEVEL} 
.ends
*
.model D_HC73 ueff (
+	tppcqlhty=16ns	tppcqlhmx=39ns
+	tppcqhlty=16ns	tppcqhlmx=39ns
+	tpclkqlhty=13ns	tpclkqlhmx=32ns
+	tpclkqhlty=13ns	tpclkqhlmx=32ns
+	twclkhmx=20ns	twclkhty=20ns
+	twclklmx=20ns	twclklty=20ns
+	twpclmx=20ns	twpclty=20ns
+	tsudclkmx=30ns	tsudclkty=30ns
+	tsupcclkhmx=30ns	tsupcclkhty=30ns
+	)
*$
*---------
* 74HC74  Dual D-Type Positive-Edge-Triggered Flip-Flops w/ Preset & Clear
*
* The High-Speed CMOS Logic Data Book, 1988, TI
* tdn	06/28/89	Update interface and model names
*
.subckt 74HC74  1CLRBAR 1D 1CLK 1PREBAR 1Q 1QBAR
+	optional: DPWR=$G_DPWR DGND=$G_DGND
+	params: MNTYMXDLY=0 IO_LEVEL=0
UFF1 dff(1) DPWR DGND
+	1PREBAR 1CLRBAR 1CLK   1D   1Q 1QBAR 
+	D_HC74 IO_HC MNTYMXDLY={MNTYMXDLY} IO_LEVEL={IO_LEVEL} 
.ends
*
.model D_HC74 ueff (
+	twpclmn=25ns	twclklmn=20ns
+	twclkhmn=20ns	tsudclkmn=25ns
+	tsupcclkhmn=6ns	thdclkmn=0ns
+	tppcqlhty=20ns	tppcqlhmx=58ns
+	tppcqhlty=20ns	tppcqhlmx=58ns
+	tpclkqlhty=20ns	tpclkqlhmx=44ns
+	tpclkqhlty=20ns	tpclkqhlmx=44ns
+	)
*$
*---------
* 74HC75  4-bit bistable latches (dual 2-bit common clock)
*
* The High-Speed CMOS Logic Data Book, 1988, TI
* muw	12/05/89	Created
*
.subckt 74HC75  1D 2D C 1Q 1QBAR 2Q 2QBAR
+	optional: DPWR=$G_DPWR DGND=$G_DGND
+	params: MNTYMXDLY=0 IO_LEVEL=0
UIBUF bufa(3) DPWR DGND
+	1D 2D C   1D_BUF 2D_BUF C_BUF 
+	D0_GATE IO_HC IO_LEVEL={IO_LEVEL} 
U12 dltch(2) DPWR DGND
+	$D_HI $D_HI C_BUF   1D_BUF 2D_BUF   1Q 2Q 1QBAR 2QBAR 
+	D_HC75_1 IO_HC MNTYMXDLY={MNTYMXDLY} IO_LEVEL={IO_LEVEL} 
.ends
*
.model D_HC75_1 ugff (
+	twghmx=100ns	tsudgmx=125ns
+	thdgmx=5ns	tpgqlhty=44ns
+	tpgqlhmx=165ns	tpgqhlty=44ns
+	tpgqhlmx=165ns	tpdqlhty=40ns
+	tpdqlhmx=150ns	tpdqhlty=40ns
+	tpdqhlmx=150ns
+	)
*$
*---------
* 74HC76  Dual J-K Flip-Flops with Preset and Clear
*
* The High-Speed CMOS Logic Data Book, 1988, TI
* tdn	06/28/89	Update interface and model names
*
.subckt 74HC76  CLK PREBAR CLRBAR J K Q QBAR
+	optional: DPWR=$G_DPWR DGND=$G_DGND
+	params: MNTYMXDLY=0 IO_LEVEL=0
*--NOTE--
* These Flip-Flops are negative-edge-triggered
*
U1 jkff(1) DPWR DGND
+	PREBAR CLRBAR CLK   J K   Q QBAR 
+	D_HC76 IO_HC MNTYMXDLY={MNTYMXDLY} IO_LEVEL={IO_LEVEL} 
.ends
*
.model D_HC76 ueff (
+	tppcqlhty=16ns	tppcqlhmx=39ns
+	tppcqhlty=16ns	tppcqhlmx=39ns
+	tpclkqlhty=19ns	tpclkqlhmx=36ns
+	tpclkqhlty=19ns	tpclkqhlmx=36ns
+	twclkhmn=20ns	twclklmn=20ns
+	twpclmn=25ns	tsudclkmn=38ns
+	tsupcclkhmn=25ns
+	)
*$
*---------
* 74HC78  Dual J-K Flip-Flops with Preset, Common Clear, and Common Clock
*
* The High-Speed CMOS Logic Data Book, 1988, TI
* tdn    06/28/89    Update interface and model names
*
.subckt 74HC78  CLK CLRBAR 1PREBAR 1J 1K 1Q 1QBAR 2PREBAR 2J 2K 2Q 2QBAR
+	optional: DPWR=$G_DPWR DGND=$G_DGND
+	params: MNTYMXDLY=0 IO_LEVEL=0
UIBUF bufa(4) DPWR DGND
+	CLK CLRBAR 1PREBAR 2PREBAR   CLK_BUF CLRBAR_BUF 1PREB 2PREB 
+	D0_GATE IO_HC IO_LEVEL={IO_LEVEL} 
U1 jkff(1) DPWR DGND
+	1PREB CLRBAR_BUF CLK_BUF   1J 1K   1Q 1QBAR 
+	D_HC78 IO_HC MNTYMXDLY={MNTYMXDLY} IO_LEVEL={IO_LEVEL} 
U2 jkff(1) DPWR DGND
+	2PREB CLRBAR_BUF CLK_BUF   2J 2K   2Q 2QBAR 
+	D_HC78 IO_HC MNTYMXDLY={MNTYMXDLY} IO_LEVEL={IO_LEVEL} 
.ends
*
.model D_HC78 ueff (
+	tppcqlhty=16ns	tppcqlhmx=39ns
+	tppcqhlty=16ns	tppcqhlmx=39ns
+	tpCLKqlhty=13ns	tpCLKqlhmx=32ns
+	tpCLKqhlty=13ns	tpCLKqlhmx=32ns
+	twclkhmx=20ns	twclkhty=20ns
+	twclklmx=20ns	twclklty=20ns
+	twpclmx=20ns	twpclty=20ns
+	tsudclkmx=30ns	tsudclkty=30ns
+	tsupcclkhmx=30ns	tsupcclkhty=30ns
+	)
*$
*--------
* 74HC85A 4-BIT MAGNITUDE COMPARATOR
*
* THE HIGH-SPEED CMOS LOGIC DATA BOOK, 1988, TI
* KN   8-20-92      REMODELED USING LOGICEXP, PINDLY, CONSTRAINT DEVICES
*
.SUBCKT 74HC85A P3_I P2_I P1_I P0_I Q3_I Q2_I Q1_I Q0_I
+ PGQ_I PEQ_I PLQ_I YPGQ_O YPEQ_O YPLQ_O
+ OPTIONAL: DPWR=$G_DPWR DGND=$G_DGND
+ PARAMS: MNTYMXDLY=0 IO_LEVEL=0
*
UHC85ALOG LOGICEXP(11,14) DPWR DGND
+ P3_I P2_I P1_I P0_I Q3_I Q2_I Q1_I Q0_I PGQ_I PEQ_I PLQ_I
+ P3   P2   P1   P0   Q3   Q2   Q1   Q0   PGQ   PEQ   PLQ
+ YPGQ YPEQ YPLQ
+ D0_GATE
+ IO_HC IO_LEVEL={IO_LEVEL}
+
+ LOGIC:
*   BUFFER:
+   P3     = { P3_I }
+   P2     = { P2_I }
+   P1     = { P1_I }
+   P0     = { P0_I }
+   Q3     = { Q3_I }
+   Q2     = { Q2_I }
+   Q1     = { Q1_I }
+   Q0     = { Q0_I }
+   PGQ    = { PGQ_I }
+   PEQ    = { PEQ_I }
+   PLQ    = { PLQ_I }
+
*   INTERMEDIATE TERMS:
+   C3     = { ~(P3 & Q3) }
+   C2     = { ~(P2 & Q2) }
+   C1     = { ~(P1 & Q1) }
+   C0     = { ~(P0 & Q0) }
+   P3C3    = { P3 & C3 }
+   P2C2    = { P2 & C2 }
+   P1C1    = { P1 & C1 }
+   P0C0    = { P0 & C0 }
+   Q3C3    = { Q3 & C3 }
+   Q2C2    = { Q2 & C2 }
+   Q1C1    = { Q1 & C1 }
+   Q0C0    = { Q0 & C0 }
+   D3      = { ~(P3C3 | Q3C3) }
+   D2      = { ~(P2C2 | Q2C2) }
+   D1      = { ~(P1C1 | Q1C1) }
+   D0      = { ~(P0C0 | Q0C0) }
+   D32     = { D3 & D2 }
+   D31     = { D32 & D1 }
+   D30     = { D31 & D0 }
+
*   OUTPUT ASSIGNMENTS:
+   YPGQ  = { ~Q3C3 & ~(Q2C2 & D3) & ~(Q1C1 & D32) & ~(Q0C0 & D31) &
+             ~(PLQ & D30) & ~(PEQ & D30) }
+   YPEQ  = { D30 & PEQ }
+   YPLQ  = { ~(PEQ & D30) & ~(PGQ & D30) & ~(P0C0 & D31) & ~(P1C1 & D32) &
+             ~(P2C2 & D3) & ~P3C3 }
*
UHC85ADLY PINDLY (3,0,11) DPWR DGND
+ YPGQ YPEQ YPLQ
+ P3 P2 P1 P0 Q3 Q2 Q1 Q0 PGQ PEQ PLQ
+ YPGQ_O YPEQ_O YPLQ_O
+ IO_HC MNTYMXDLY={MNTYMXDLY} IO_LEVEL={IO_LEVEL}
+
+ BOOLEAN:
+  DATA_CHANGE = { CHANGED(P3,0) | CHANGED(P2,0) | CHANGED(P1,0) | CHANGED(P0,0)
+              | CHANGED(Q3,0) | CHANGED(Q2,0) | CHANGED(Q1,0) | CHANGED(Q0,0) }
+  PEQ_CHANGE   = { CHANGED(PEQ,0) }
+  PGEQ_CHANGE  = { CHANGED(PGQ,0) | CHANGED(PEQ,0) }
+  PLEQ_CHANGE  = { CHANGED(PLQ,0) | CHANGED(PEQ,0) }
+
+ PINDLY:
+   YPGQ_O  =  {
+     CASE(
+       DATA_CHANGE, DELAY(-1,26NS,58NS),
+       PLEQ_CHANGE, DELAY(-1,21NS,50NS),
+                    DELAY(-1,27NS,59NS)  ;DEFAULT
+     )
+   }
+
+   YPEQ_O  =  {
+     CASE(
+       DATA_CHANGE, DELAY(-1,22NS,50NS),
+       PEQ_CHANGE, DELAY(-1,17NS,37NS),
+                    DELAY(-1,23NS,51NS)  ;DEFAULT
+     )
+   }
+
+   YPLQ_O  =  {
+     CASE(
+       DATA_CHANGE, DELAY(-1,26NS,58NS),
+       PGEQ_CHANGE, DELAY(-1,24NS,50NS),
+                    DELAY(-1,27NS,59NS)  ;DEFAULT
+     )
+   }
*
.ENDS
*
*$
*---------
* 74HC86  Quadruple 2-input Exclusive-Or Gates
*
* The High-Speed CMOS Logic Data Book, 1988, TI
* tdn	06/29/89	Update interface and model names
*
.subckt 74HC86  A B Y
+	optional: DPWR=$G_DPWR DGND=$G_DGND
+	params: MNTYMXDLY=0 IO_LEVEL=0
U1 xor DPWR DGND
+	A B   Y 
+	D_HC86 IO_HC MNTYMXDLY={MNTYMXDLY} IO_LEVEL={IO_LEVEL} 
.ends
*
.model D_HC86 ugate (
+	tplhty=12ns	tplhmx=25ns
+	tphlty=12ns	tphlmx=25ns
+	)
*$
*---------
* 74HC93  COUNTER BINARY 4-BIT, ASYNCHRONOUS
*
* HIGH SPEED CMOS LOGIC FAMILY BOOK, 1991, PHILIPS SEMICONDUCTORS
* JLS   6-26-92   REMODELED USING LOGICEXP, PINDLY, AND CONSTRAINT DEVICES
* NOTICE -- THE CKA TO QD PIN DELAY IS NOT INCLUDED IN THIS MODEL SINCE
*           THE DIV2 AND DIV8 SECTIONS OF THE COUNTER ACT INDEPENDENTLY. 
*
.SUBCKT 74HC93   CKA_I CKB_I R01_I R02_I   QA_O QB_O QC_O QD_O
+ OPTIONAL: DPWR=$G_DPWR DGND=$G_DGND
+ PARAMS: MNTYMXDLY=0 IO_LEVEL=0
*
U1 JKFF(1) DPWR DGND
+ $D_HI CLRBAR CKA   $D_HI $D_HI     QA $D_NC
+ D0_EFF  IO_HC
U2 JKFF(1) DPWR DGND
+ $D_HI CLRBAR CKB   $D_HI $D_HI     QB $D_NC 
+ D0_EFF  IO_HC
U3 JKFF(1) DPWR DGND
+ $D_HI CLRBAR QB    $D_HI $D_HI     QC $D_NC 
+ D0_EFF  IO_HC
U4 JKFF(1) DPWR DGND
+ $D_HI CLRBAR QC    $D_HI $D_HI     QD $D_NC 
+ D0_EFF  IO_HC
U5 BUFA(4) DPWR DGND
+ CKA_I CKB_I R01_I R02_I   CKA CKB R01 R02
+ D0_GATE IO_HC IO_LEVEL={IO_LEVEL} 
U6 NAND(2) DPWR DGND
+ R01 R02   CLRBAR 
+ D0_GATE IO_HC IO_LEVEL={IO_LEVEL} 
*
UHC93DLY PINDLY (4,0,5) DPWR DGND
+ QA QB QC QD
+ CKA CKB CLRBAR R01 R02
+ QA_O QB_O QC_O QD_O
+ IO_HC
+ MNTYMXDLY={MNTYMXDLY} IO_LEVEL={IO_LEVEL}
+
+ BOOLEAN:
+   CLOCKEDA = { CHANGED_HL(CKA,0) }
+   CLOCKEDB = { CHANGED_HL(CKB,0) }
+   CLEARED  = { CHANGED_HL(CLRBAR,0) }
+
+ PINDLY:
+ QA_O = {
+   CASE (
+     CLOCKEDA, DELAY(-1,15NS,31NS),
+     DELAY(-1,18NS,39NS)
+     )
+   }
+ QB_O = {
+   CASE (
+     CLOCKEDB, DELAY(-1,16NS,34NS),
+     DELAY(-1,18NS,39NS)
+     )
+   }
+ QC_O = {
+   CASE (
+     CLEARED, DELAY(-1,18NS,39NS),
+     DELAY(-1,22NS,46NS)
+     )
+   }
+ QD_O = {
+   CASE (
+     CLEARED, DELAY(-1,18NS,39NS),
+     DELAY(-1,29NS,61NS)
+     )
+   }
+
+ FREQ:
+   NODE           = CKA
+   MAXFREQ        = 24MEGHZ
+ FREQ:
+   NODE           = CKB
+   MAXFREQ        = 24MEGHZ
+ WIDTH:
+   NODE           = CKA
+   MIN_LO         = 20NS
+   MIN_HI         = 20NS
+ WIDTH:
+   NODE           = CKB
+   MIN_LO         = 20NS
+   MIN_HI         = 20NS
+ WIDTH:
+   NODE           = R01
+   MIN_HI         = 20NS
+ WIDTH:
+   NODE           = R02
+   MIN_HI         = 20NS
+ SETUP_HOLD:
+   DATA(2)        = R01 R02
+   CLOCK HL       = CKA
+   RELEASETIME_HL = 13NS
+   WHEN           = { CHANGED(CLRBAR,13NS) }
+ SETUP_HOLD:
+   DATA(2)        = R01 R02
+   CLOCK HL       = CKB
+   RELEASETIME_HL = 13NS
+   WHEN           = { CHANGED(CLRBAR,13NS) }
*
.ENDS
*
*$
*--------
* 74HC95   4-BIT PARALLEL SHIFT REGISTERS
*
* HIGH-SPEED CMOS LOGIC DATA BOOK, 1988, HITACHI AMERICA
* KN   7-6-92      REMODELED USING LOGICEXP, PINDLY, CONSTRAINT DEVICES
*
.SUBCKT 74HC95   MODE_I CLK1_I CLK2_I SER_I A_I B_I C_I D_I
+ QA_O QB_O QC_O QD_O
+ OPTIONAL: DPWR=$G_DPWR   DGND=$G_DGND
+ PARAMS:   MNTYMXDLY=0    IO_LEVEL=0
*
UHC95LOG LOGICEXP(11,13) DPWR DGND
+ MODE_I CLK1_I CLK2_I SER_I A_I B_I C_I D_I QA QB QC
+ MODE CLK1 CLK2 SER A B C D CLK DA DB DC DD
+ D0_GATE IO_HC
+ IO_LEVEL={IO_LEVEL}
+ LOGIC:
+   MODE = { MODE_I }
+   CLK1 = { CLK1_I }
+   CLK2 = { CLK2_I }
+   SER = { SER_I }
+   A   = { A_I }
+   B   = { B_I }
+   C   = { C_I }
+   D   = { D_I }
+
* INTERMEDIATE TERM
+   MODEBAR = { ~MODE }
+
+   CLK = { ~((MODEBAR  & CLK1) | (MODE  & CLK2)) }
+   DA  = { (MODEBAR  & SER)    | (MODE  & A) }
+   DB  = { (MODEBAR  & QA) | (MODE  & B) }
+   DC  = { (MODEBAR  & QB) | (MODE  & C) }
+   DD  = { (MODEBAR  & QC) | (MODE  & D) }
*
U1 DFF(4) DPWR DGND $D_HI $D_HI CLK
+ DA DB DC DD QA QB QC QD
+ $D_NC $D_NC $D_NC $D_NC
+ D0_EFF  IO_HC
*
UHC95DLY PINDLY (4,0,8) DPWR DGND
+ QA QB QC QD
+ CLK1 CLK2 MODE SER A B C D
+ QA_O QB_O QC_O QD_O
+ IO_HC  MNTYMXDLY={MNTYMXDLY}  IO_LEVEL={IO_LEVEL}
+
+ BOOLEAN:
+    CLK = { CHANGED_HL(CLK1,0) | CHANGED_HL(CLK2,0) }
+
+ PINDLY:
+   QA_O QB_O QC_O QD_O = {
+     CASE(
+       CLK & TRN_LH,  DELAY(-1,17NS,36NS),
+       CLK & TRN_HL,  DELAY(-1,17NS,43NS),
+                      DELAY(-1,18NS,44NS)  ;DEFAULT
+       )
+     }
+
+ FREQ:
+   NODE = CLK1
+   MAXFREQ = 16MEG
+
+ FREQ:
+   NODE = CLK2
+   MAXFREQ = 16MEG
+
+ WIDTH:
+   NODE = CLK1
+   MIN_HI = 20NS
+   MIN_LO = 20NS
+
+ WIDTH:
+   NODE = CLK2
+   MIN_HI = 20NS
+   MIN_LO = 20NS
+
+ SETUP_HOLD:
+   DATA(1) SER
+   CLOCK HL = CLK1
+   SETUPTIME = 25NS
+   HOLDTIME = 10NS
+   WHEN = { (MODE!='1 ^ CHANGED(MODE,0)) }
+
+ SETUP_HOLD:
+   DATA(4) A  B  C  D
+   CLOCK HL = CLK2
+   SETUPTIME = 25NS
+   HOLDTIME = 10NS
+   WHEN = { (MODE!='0 ^ CHANGED(MODE,0)) }
+
*
.ENDS
*
*
*$
*---------
* 74HC107  Dual J-K Flip-Flops with Clear
*
* The High-Speed CMOS Logic Data Book, 1988, TI
* tdn	06/29/89	Update interface and model names
*
.subckt 74HC107  CLK CLRBAR J K Q QBAR
+	optional: DPWR=$G_DPWR DGND=$G_DGND
+	params: MNTYMXDLY=0 IO_LEVEL=0
U1 jkff(1) DPWR DGND
+	$D_HI CLRBAR CLK   J K   Q QBAR 
+	D_HC107 IO_HC MNTYMXDLY={MNTYMXDLY} IO_LEVEL={IO_LEVEL} 
.ends
*
.model D_HC107 ueff (
+	tppcqlhty=25ns	tppcqlhmx=39ns
+	tppcqhlty=25ns	tppcqhlmx=39ns
+	tpclkqlhty=20ns	tpclkqlhmx=32ns
+	tpclkqhlty=20ns	tpclkqhlmx=32ns
+	twclkhmx=20ns	twclkhty=20ns
+	twclklmx=20ns	twclklty=20ns
+	twpclmx=25ns	twpclty=25ns
+	tsudclkmx=25ns	tsudclkty=25ns
+	tsupcclkhmx=25ns	tsupcclkhty=25ns
+	)
*$
*---------	 
* 74HC109  Dual J-Kbar Positive-Edge-Triggered Flip-Flops w/ Preset & Clear
*
* The High-Speed CMOS Logic Data Book, 1988, TI
* tdn	06/30/89	Update interface and model names
*
.subckt 74HC109  CLK PREBAR CLRBAR J KBAR Q QBAR
+	optional: DPWR=$G_DPWR DGND=$G_DGND
+	params: MNTYMXDLY=0 IO_LEVEL=0
U1 jkff(1) DPWR DGND
+	PREBAR CLRBAR CLKBAR   J K   Q QBAR 
+	D_HC109 IO_HC MNTYMXDLY={MNTYMXDLY} IO_LEVEL={IO_LEVEL} 
U2 inva(2) DPWR DGND
+	KBAR CLK   K CLKBAR 
+	D0_GATE IO_HC IO_LEVEL={IO_LEVEL} 
.ends
*
.model D_HC109 ueff (
+	tppcqlhty=15ns	tppcqlhmx=58ns
+	tppcqhlty=15ns	tppcqhlmx=58ns
+	tpclkqlhty=15ns	tpclkqlhmx=44ns
+	tpclkqhlty=15ns	tpclkqhlmx=44ns
+	twclkhmx=20ns	twclklmx=20ns
+	twclkhty=20ns	twclklty=20ns
+	twpclmx=25ns	twpclty=25ns
+	tsudclkmx=25ns	tsudclkty=25ns
+	tsupcclkhmx=6ns	tsupcclkhty=6ns
+	)
*$
*---------
* 74HC112  Dual J-K Negative-Edge-Triggered Flip-Flops with Preset & Clear
*
* The High-Speed CMOS Logic Data Book, 1988, TI
* tdn	07/05/89	Update interface and model names
*
.subckt 74HC112  CLK PREBAR CLRBAR J K Q QBAR
+	optional: DPWR=$G_DPWR DGND=$G_DGND
+	params: MNTYMXDLY=0 IO_LEVEL=0
U1 jkff(1) DPWR DGND
+	PREBAR CLRBAR CLK   J K   Q QBAR 
+	D_HC112 IO_HC MNTYMXDLY={MNTYMXDLY} IO_LEVEL={IO_LEVEL} 
.ends
*
.model D_HC112 ueff (
+	tppcqlhty=16ns	tppcqlhmx=41ns
+	tppcqhlty=16ns	tppcqhlmx=41ns
+	tpclkqlhty=16ns	tpclkqlhmx=31ns
+	tpclkqhlty=16ns	tpclkqhlmx=31ns
+	twclkhmx=25ns	twclkhty=25ns
+	twclklmx=25ns	twclklty=25ns
+	twpclmx=25ns	twpclty=25ns
+	tsudclkmx=25ns	tsudclkty=25ns
+	tsupcclkhmx=25ns	tsupcclkhty=25ns
+	)
*$
*---------
* 74HC113  Dual J-K Negative-Edge-Triggered Flip-Flops with Preset
*
* The High-Speed CMOS Logic Data Book, 1988, TI
* tdn	07/05/89	Update interface and model names
*
.subckt 74HC113  CLK PREBAR J K Q QBAR
+	optional: DPWR=$G_DPWR DGND=$G_DGND
+	params: MNTYMXDLY=0 IO_LEVEL=0
U1 jkff(1) DPWR DGND
+	PREBAR $D_HI CLK   J K   Q QBAR 
+	D_HC113 IO_HC MNTYMXDLY={MNTYMXDLY} IO_LEVEL={IO_LEVEL} 
.ends
*
.model D_HC113 ueff (
+	tppcqlhty=18ns	tppcqlhmx=41ns
+	tppcqhlty=18ns	tppcqhlmx=41ns
+	tpclkqlhty=19ns	tpclkqlhmx=35ns
+	tpclkqhlty=19ns	tpclkqhlmx=35ns
+	twclkhmx=20ns	twclkhty=20ns
+	twclklmx=20ns	twclklty=20ns
+	twpclmx=25ns	twpclty=25ns
+	tsudclkmx=25ns	tsudclkmn=25ns
+	tsupcclkhmx=6ns	tsupcclkhmn=6ns
+	)
*$
*---------
* 74HC114  Dual J-K Negative-Edge-Triggered Flip-Flops with Preset & Common Clear, & Common Clock
*
* The High-Speed CMOS Logic Data Book, 1988, TI
* tdn	07/05/89	Update interface and model names
*
.subckt 74HC114  CLK CLRBAR 1PREBAR 1J 1K 1Q 1QBAR 2PREBAR 2J 2K 2Q 2QBAR
+	optional: DPWR=$G_DPWR DGND=$G_DGND
+	params: MNTYMXDLY=0 IO_LEVEL=0
UIBUF bufa(4) DPWR DGND
+	CLK CLRBAR 1PREBAR 2PREBAR   CLK_BUF CLRBAR_BUF 1PREB 2PREB 
+	D0_GATE IO_HC IO_LEVEL={IO_LEVEL} 
U1 jkff(1) DPWR DGND
+	1PREB CLRBAR_BUF CLK_BUF   1J 1K   1Q 1QBAR 
+	D_HC114 IO_HC MNTYMXDLY={MNTYMXDLY} IO_LEVEL={IO_LEVEL} 
U2 jkff(1) DPWR DGND
+	2PREB CLRBAR_BUF CLK_BUF   2J 2K   2Q 2QBAR 
+	D_HC114 IO_HC MNTYMXDLY={MNTYMXDLY} IO_LEVEL={IO_LEVEL} 
.ends
*
.model D_HC114 ueff (
+	tppcqlhty=20ns	tppcqlhmx=44ns
+	tppcqhlty=20ns	tppcqhlmx=44ns
+	tpclkqlhty=19ns	tpclkqlhmx=44ns
+	tpclkqhlty=19ns	tpclkqhlmx=44ns
+	twclkhmx=25ns	twclkhty=25ns
+	twclklmx=25ns	twclklty=25ns
+	twpclmx=25ns	twpclty=25ns
+	tsudclkmx=25ns	tsudclkty=25ns
+	tsupcclkhmx=25ns	tsupcclkhty=25ns
+	)
*$
*---------
* 74HC125  Quadruple Bus Buffer with 3-state Outputs
*
* The High-Speed CMOS Logic Data Book, 1988, TI
* tdn	07/05/89	Update interface and model names
* rbh   11/11/92	Added bus I/O model
*
.subckt 74HC125  A GBAR Y
+	optional: DPWR=$G_DPWR DGND=$G_DGND
+	params: MNTYMXDLY=0 IO_LEVEL=0
U1 buf3 DPWR DGND
+	A   G   Y 
+	D_HC125 IO_HC_BUS MNTYMXDLY={MNTYMXDLY} IO_LEVEL={IO_LEVEL} 
U2 inv DPWR DGND
+	GBAR   G 
+	D0_GATE IO_HC IO_LEVEL={IO_LEVEL} 
.ends
*
.model D_HC125 utgate (
+	tplhty=14ns	tplhmx=30ns
+	tphlty=14ns	tphlmx=30ns
+	tpzhty=14ns	tpzhmx=30ns
+	tpzlty=14ns	tpzlmx=30ns
+	tphzty=15ns	tphzmx=30ns
+	tplzty=15ns	tplzmx=30ns
+	)
*$
*---------
* 74HC126  Quadruple Bus Buffer with 3-state Outputs
*
* The High-Speed CMOS Logic Data Book, 1988, TI
* tdn	07/05/89	Update interface and model names
* rbh   11/11/92	Added bus I/O model
*
.subckt 74HC126  A G Y
+	optional: DPWR=$G_DPWR DGND=$G_DGND
+	params: MNTYMXDLY=0 IO_LEVEL=0
U1 buf3 DPWR DGND
+	A   G   Y 
+	D_HC126 IO_HC_BUS MNTYMXDLY={MNTYMXDLY} IO_LEVEL={IO_LEVEL} 
.ends
*
.model D_HC126 utgate (
+	tplhty=14ns	tplhmx=30ns
+	tphlty=14ns	tphlmx=30ns
+	tpzhty=16ns	tpzhmx=30ns
+	tpzlty=16ns	tpzlmx=30ns
+	tphzty=17ns	tphzmx=30ns
+	tplzty=17ns	tplzmx=30ns
+	)
*$
*---------
* 74HC132  Quadruple 2-input Positive-Nand Schmitt Triggers
*
* The High-Speed CMOS Logic Data Book, 1988, TI
* tdn	07/05/89	Update interface and model names
*
.subckt 74HC132  A B Y
+	optional: DPWR=$G_DPWR DGND=$G_DGND
+	params: MNTYMXDLY=0 IO_LEVEL=0
* Note: These devices are modeled as simple Nand gates.
*       Hysteresis is modeled by the AtoD interface.
*
U1 nand(2) DPWR DGND
+	A B   Y 
+	D_HC132 IO_HC_ST MNTYMXDLY={MNTYMXDLY} IO_LEVEL={IO_LEVEL} 
.ends
*
.model D_HC132 ugate (
+	tplhty=18ns	tplhmx=31ns
+	tphlty=18ns	tphlmx=31ns
+	)
*$
*---------
* 74HC133  13-input Positive-Nand Gates
*
* The High-Speed CMOS Logic Data Book, 1988, TI
* tdn	07/05/89	Update interface and model names
*
.subckt 74HC133  A B C D E F G H I J K L M Y
+	optional: DPWR=$G_DPWR DGND=$G_DGND
+	params: MNTYMXDLY=0 IO_LEVEL=0
U1 nand(13) DPWR DGND
+	A	B	C	D	E	F	G	H	I
+	J	K	L	M
+	Y
+	D_HC133 IO_HC MNTYMXDLY={MNTYMXDLY} IO_LEVEL={IO_LEVEL} 
.ends
*
.model D_HC133 ugate (
+	tplhty=16ns	tplhmx=38ns
+	tphlty=16ns	tphlmx=38ns
+	)
*$
*---------
* 74HC137  DECODER/DEMULTIPLEXER 3-8 LINE WITH ADDRESS LATCHES
*
* HIGH-SPEED CMOS LOGIC DATA BOOK, AUG 1989, TI
* JLS   8-4-92   REMODELED USING LOGICEXP, PINDLY, AND CONSTRAINT DEVICES
*    
.SUBCKT 74HC137   G1_I G2BAR_I GLBAR_I A_I B_I C_I
+ Y0_O Y1_O Y2_O Y3_O Y4_O Y5_O Y6_O Y7_O
+ OPTIONAL: DPWR=$G_DPWR DGND=$G_DGND
+ PARAMS: MNTYMXDLY=0 IO_LEVEL=0
*
U1 DLTCH(3) DPWR DGND
+ $D_HI $D_HI LATCHEN
+  A     B     C
+ QA    QB    QC
+ QABAR QBBAR QCBAR
+ D0_GFF  IO_HC
*
UHC137LOG LOGICEXP (12,14) DPWR DGND
+ G1_I G2BAR_I GLBAR_I A_I B_I C_I QA QB QC QABAR QBBAR QCBAR
+              GLBAR   A   B   C   LATCHEN ENABLE
+ Y0 Y1 Y2 Y3 Y4 Y5 Y6 Y7
+ D0_GATE IO_HC
+ IO_LEVEL={IO_LEVEL}
+
+ LOGIC:
+   G1      = { G1_I }
+   G2BAR   = { G2BAR_I }
+   GLBAR   = { GLBAR_I }
+   A       = { A_I }
+   B       = { B_I }
+   C       = { C_I }
+   LATCHEN = { ~GLBAR }
+   ENABLE  = { G1 & ~G2BAR }
+   Y0      = { ~(ENABLE & QCBAR & QBBAR & QABAR) }
+   Y1      = { ~(ENABLE & QCBAR & QBBAR & QA   ) }
+   Y2      = { ~(ENABLE & QCBAR & QB    & QABAR) }
+   Y3      = { ~(ENABLE & QCBAR & QB    & QA   ) }
+   Y4      = { ~(ENABLE & QC    & QBBAR & QABAR) }
+   Y5      = { ~(ENABLE & QC    & QBBAR & QA   ) }
+   Y6      = { ~(ENABLE & QC    & QB    & QABAR) }
+   Y7      = { ~(ENABLE & QC    & QB    & QA   ) }
*
UHC137DLY PINDLY (8,0,5) DPWR DGND
+ Y0 Y1 Y2 Y3 Y4 Y5 Y6 Y7
+ ENABLE GLBAR A B C
+ Y0_O Y1_O Y2_O Y3_O Y4_O Y5_O Y6_O Y7_O
+ IO_HC
+ MNTYMXDLY={MNTYMXDLY} IO_LEVEL={IO_LEVEL}
+
+ BOOLEAN:
+   ABLE  = { CHANGED(ENABLE,0) }
+   ABLEL = { CHANGED(GLBAR,0) }
+   ADDR  = { CHANGED(A,0) | CHANGED(B,0) | CHANGED(C,0) }
+
+ PINDLY:
+   Y0_O Y1_O Y2_O Y3_O Y4_O Y5_O Y6_O Y7_O = {
+     CASE (
+       ABLE , DELAY(-1,17NS,36NS),
+       ABLEL, DELAY(-1,22NS,48NS),
+       ADDR , DELAY(-1,23NS,48NS),
+       DELAY(-1,23NS,48NS)
+       )
+     }
+
+ WIDTH:
+   NODE      = GLBAR
+   MIN_LO    = 20NS
+ SETUP_HOLD:
+   DATA(3)   = A B C
+   CLOCK LH  = GLBAR
+   SETUPTIME = 19NS
+   HOLDTIME  =  5NS
*
.ENDS
*
*$
*---------
* 74HC138  DECODER/DEMULTIPLEXER 3-8 LINE
*
* HIGH-SPEED CMOS LOGIC DATA BOOK, AUG 1989, TI
* JLS   8-4-92   REMODELED USING LOGICEXP, PINDLY, AND CONSTRAINT DEVICES
*    
.SUBCKT 74HC138   G1_I G2ABAR_I G2BBAR_I A_I B_I C_I