* Library of 74HCT Family Digital Models
*
*  Copyright OrCAD, Inc. 1998 All Rights Reserved.
*
*
* $Revision:   1.3  $
* $Author:   RPEREZ  $
* $Date:   16 Apr 1998 15:46:10  $
*
*
*$
*---------
* 74HCT04  Hex Inverters
* 
* The High-Speed CMOS Logic Data Book, 1988, TI
* tdn	06/23/89	Update interface and model names
*
.subckt 74HCT04  A Y
+	optional: DPWR=$G_DPWR DGND=$G_DGND
+	params: MNTYMXDLY=0 IO_LEVEL=0
U1 inv DPWR DGND
+	A   Y 
+	D_HCT04 IO_HCT MNTYMXDLY={MNTYMXDLY} IO_LEVEL={IO_LEVEL} 
.ends
*
.model D_HCT04 ugate (
+	tplhty=14ns	tplhmx=25ns
+	tphlty=14ns	tphlmx=25ns
+	)
*$
*---------
* 74HCT35  Hex Noninverters with Open-Collector Outputs
*
* The High-Speed CMOS Logic Data Book, 1988, TI
* tdn 	06/26/89	Update interface and model names
*
.subckt 74HCT35  A Y
+	optional: DPWR=$G_DPWR DGND=$G_DGND
+	params: MNTYMXDLY=0 IO_LEVEL=0
U1 buf DPWR DGND
+	A   Y 
+	D_HCT35 IO_HCT_OC MNTYMXDLY={MNTYMXDLY} IO_LEVEL={IO_LEVEL} 
.ends
*
.model D_HCT35 ugate (
+	tplhmx=30ns	tphlmx=30ns
+	)
*$
*--------
* 74HCT42  DECODER BCD-DECIMAL 4-10 LINE
*
* HIGH SPEED CMOS LOGIC FAMILY BOOK, 1991, PHILIPS SEMICONDUCTORS
* JLS   7-30-92   REMODELED USING LOGICEXP, PINDLY, AND CONSTRAINT DEVICES
*
.SUBCKT 74HCT42   A_I B_I C_I D_I
+ Y0_O Y1_O Y2_O Y3_O Y4_O Y5_O Y6_O Y7_O Y8_O Y9_O
+ OPTIONAL: DPWR=$G_DPWR DGND=$G_DGND
+ PARAMS: MNTYMXDLY=0 IO_LEVEL=0
*
UHCT42LOG LOGICEXP (4,14) DPWR DGND
+ A_I B_I C_I D_I
+ A   B   C   D
+ Y0 Y1 Y2 Y3 Y4 Y5 Y6 Y7 Y8 Y9
+ D0_GATE IO_HCT
+ IO_LEVEL={IO_LEVEL}
+
+ LOGIC:
+   A    = { A_I }
+   B    = { B_I }
+   C    = { C_I }
+   D    = { D_I }
+   ABAR = { ~A }
+   BBAR = { ~B }
+   CBAR = { ~C }
+   DBAR = { ~D }
+   Y0   = { ~(DBAR & CBAR & BBAR & ABAR ) }
+   Y1   = { ~(DBAR & CBAR & BBAR & A    ) }
+   Y2   = { ~(DBAR & CBAR & B    & ABAR ) }
+   Y3   = { ~(DBAR & CBAR & B    & A    ) }
+   Y4   = { ~(DBAR & C    & BBAR & ABAR ) }
+   Y5   = { ~(DBAR & C    & BBAR & A    ) }
+   Y6   = { ~(DBAR & C    & B    & ABAR ) }
+   Y7   = { ~(DBAR & C    & B    & A    ) }
+   Y8   = { ~(D    & CBAR & BBAR & ABAR ) }
+   Y9   = { ~(D    & CBAR & BBAR & A    ) }
*
UHCT42DLY PINDLY (10,0,4) DPWR DGND
+ Y0 Y1 Y2 Y3 Y4 Y5 Y6 Y7 Y8 Y9
+ A B C D
+  Y0_O Y1_O Y2_O Y3_O Y4_O Y5_O Y6_O Y7_O Y8_O Y9_O
+ IO_HCT
+ MNTYMXDLY={MNTYMXDLY} IO_LEVEL={IO_LEVEL}
+
+ PINDLY:
+   Y0_O Y1_O Y2_O Y3_O Y4_O
+   Y5_O Y6_O Y7_O Y8_O Y9_O = { DELAY(-1,20NS,44NS) }
*
.ENDS
*
*$
*---------
* 74HCT74  Dual D-Type Positive-Edge-Triggered Flip-Flops w/ Preset & Clear
*
* The High-Speed CMOS Logic Data Book, 1988, TI
* tdn	06/28/89	Update interface and model names
*
.subckt 74HCT74  1CLRBAR 1D 1CLK 1PREBAR 1Q 1QBAR
+	optional: DPWR=$G_DPWR DGND=$G_DGND
+	params: MNTYMXDLY=0 IO_LEVEL=0
UFF1 dff(1) DPWR DGND
+	1PREBAR 1CLRBAR 1CLK   1D   1Q 1QBAR 
+	D_HCT74 IO_HCT MNTYMXDLY={MNTYMXDLY} IO_LEVEL={IO_LEVEL} 
.ends
*
.model D_HCT74 ueff (
+	twpclmn=20ns	twclklmn=23ns
+	twclkhmn=23ns	tsudclkmn=15ns
+	tsupcclkhmn=0ns	thdclkmn=0ns
+	tppcqlhty=21ns	tppcqlhmx=44ns
+	tppcqhlty=21ns	tppcqhlmx=44ns
+	tpclkqlhty=20ns	tpclkqlhmx=35ns
+	tpclkqhlty=20ns	tpclkqhlmx=35ns
+	)
*$
*---------
* 74HCT93  COUNTER BINARY 4-BIT, ASYNCHRONOUS
*
* HIGH SPEED CMOS LOGIC FAMILY BOOK, 1991, PHILIPS SEMICONDUCTORS
* JLS   6-26-92   REMODELED USING LOGICEXP, PINDLY, AND CONSTRAINT DEVICES
* NOTICE -- THE CKA TO QA PIN DELAY IS NOT INCLUDED IN THIS MODEL SINCE
*           THE DIV2 AND DIV8 SECTIONS OF THE COUNTER ACT INDEPENDENTLY. 
*
.SUBCKT 74HCT93   CKA_I CKB_I R01_I R02_I   QA_O QB_O QC_O QD_O
+ OPTIONAL: DPWR=$G_DPWR DGND=$G_DGND
+ PARAMS: MNTYMXDLY=0 IO_LEVEL=0
*
U1 JKFF(1) DPWR DGND
+ $D_HI CLRBAR CKA   $D_HI $D_HI     QA $D_NC
+ D0_EFF  IO_HCT
U2 JKFF(1) DPWR DGND
+ $D_HI CLRBAR CKB   $D_HI $D_HI     QB $D_NC 
+ D0_EFF  IO_HCT
U3 JKFF(1) DPWR DGND
+ $D_HI CLRBAR QB    $D_HI $D_HI     QC $D_NC 
+ D0_EFF  IO_HCT
U4 JKFF(1) DPWR DGND
+ $D_HI CLRBAR QC    $D_HI $D_HI     QD $D_NC 
+ D0_EFF  IO_HCT
U5 BUFA(4) DPWR DGND
+ CKA_I CKB_I R01_I R02_I   CKA CKB R01 R02
+ D0_GATE IO_HCT IO_LEVEL={IO_LEVEL} 
U6 NAND(2) DPWR DGND
+ R01 R02   CLRBAR 
+ D0_GATE IO_HCT IO_LEVEL={IO_LEVEL} 
*
UHCT93DLY PINDLY (4,0,5) DPWR DGND
+ QA QB QC QD
+ CKA CKB CLRBAR R01 R02
+ QA_O QB_O QC_O QD_O
+ IO_HCT
+ MNTYMXDLY={MNTYMXDLY} IO_LEVEL={IO_LEVEL}
+
+ BOOLEAN:
+   CLEARED = { CHANGED_HL(CLRBAR,0) }
+
+ PINDLY:
+ QA_O QB_O = {
+   CASE (
+     CLEARED, DELAY(-1,17NS,41NS),
+     DELAY(-1,18NS,43NS)
+     )
+   }
+ QC_O = {
+   CASE (
+     CLEARED, DELAY(-1,17NS,41NS),
+     DELAY(-1,24NS,58NS)
+     )
+   }
+ QD_O = {
+   CASE (
+     CLEARED, DELAY(-1,17NS,41NS),
+     DELAY(-1,30NS,73NS)
+     )
+   }
+
+ FREQ:
+   NODE           = CKA
+   MAXFREQ        = 24MEGHZ
+ FREQ:
+   NODE           = CKB
+   MAXFREQ        = 24MEGHZ
+ WIDTH:
+   NODE           = CKA
+   MIN_LO         = 20NS
+   MIN_HI         = 20NS
+ WIDTH:
+   NODE           = CKB
+   MIN_LO         = 20NS
+   MIN_HI         = 20NS
+ WIDTH:
+   NODE           = R01
+   MIN_HI         = 20NS
+ WIDTH:
+   NODE           = R02
+   MIN_HI         = 20NS
+ SETUP_HOLD:
+   DATA(2)        = R01 R02
+   CLOCK HL       = CKA
+   RELEASETIME_HL = 13NS
+   WHEN           = { CHANGED(CLRBAR,13NS) }
+ SETUP_HOLD:
+   DATA(2)        = R01 R02
+   CLOCK HL       = CKB
+   RELEASETIME_HL = 13NS
+   WHEN           = { CHANGED(CLRBAR,13NS) }
*
.ENDS
*
*$
*---------
* 74HCT109  Dual J-KBar Positive-Edge-Triggered Flip-Flops w/ Set & Reset    
*
* Harris Semiconductor, 1989
* cv	08/20/90	Created from LS
*
.subckt 74HCT109  CP SBAR RBAR J KBAR Q QBAR
+	optional: DPWR=$G_DPWR DGND=$G_DGND
+	params: MNTYMXDLY=0 IO_LEVEL=0
U1 jkff(1) DPWR DGND
+	SBAR RBAR CPBAR   JBUF KBUF   $D_NC QBAR 
+	D_HCT109_1 IO_HCT MNTYMXDLY={MNTYMXDLY} IO_LEVEL={IO_LEVEL} 
U1A jkff(1) DPWR DGND
+	SBAR RBAR CPBAR   JBUF KBUF   Q $D_NC 
+	D_HCT109_2 IO_HCT MNTYMXDLY={MNTYMXDLY} IO_LEVEL={IO_LEVEL} 
U2 inva(2) DPWR DGND
+	KBAR CP   K CPBAR 
+	D0_GATE IO_HCT IO_LEVEL={IO_LEVEL} 
U3 bufa(2) DPWR DGND
+	J K   JBUF KBUF 
+	D_HCT109_3 IO_HCT MNTYMXDLY={MNTYMXDLY} 
.ends
*
.model D_HCT109_1 ueff (
+	tppcqlhmx=38ns	tppcqhlmx=46ns
+	tpclkqlhmx=50ns	tpclkqhlmx=50ns
+	twclkhmn=23ns	twclklmn=23ns
+	twpclmn=23ns	tsudclkmn=23ns
+	tsupcclkhmn=23ns	thdclkmn=3ns
+	)
.model D_HCT109_2 ueff (
+	tppcqlhmx=56ns	tppcqhlmx=56ns
+	tpclkqlhmx=50ns	tpclkqhlmx=50ns
+	twclkhmn=23ns	twclklmn=23ns
+	twpclmn=23ns	tsudclkmn=23ns
+	tsupcclkhmn=23ns	thdclkmn=3ns
+	thdclkmx=3ns
+	)
.model D_HCT109_3 ugate (
+	tplhmn=3ns	tplhmx=3ns
+	tphlmn=3ns	tphlmx=3ns
+	)
*$
*---------
* 74HCT112  Dual J-K Negative-Edge-Triggered Flip-Flops with Set & Reset
*
* Harris Semiconductor, 1989
* cv	08/20/90	Created from LS
*
*
.subckt 74HCT112  CP SBAR RBAR J K Q QBAR
+	optional: DPWR=$G_DPWR DGND=$G_DGND
+	params: MNTYMXDLY=0 IO_LEVEL=0
U1 jkff(1) DPWR DGND
+	SBAR RBAR CP   J K   $D_NC QBAR 
+	D_HCT112_1 IO_HCT MNTYMXDLY={MNTYMXDLY} IO_LEVEL={IO_LEVEL} 
U2 jkff(1) DPWR DGND
+	SBAR RBAR CP   J K   Q $D_NC 
+	D_HCT112_2 IO_HCT MNTYMXDLY={MNTYMXDLY} IO_LEVEL={IO_LEVEL} 
.ends
*
.model D_HCT112_1 ueff (
+	tppcqlhmx=40ns	tppcqhlmx=40ns
+	tpclkqlhmx=44ns	tpclkqhlmx=44ns
+	twclkhmn=20ns	twclklmn=20ns
+	twpclmn=23ns	tsudclkmn=20ns
+	tsupcclkhmn=25ns	thdclkmn=3ns
+	)
.model D_HCT112_2 ueff (
+	tppcqlhmx=46ns	tppcqhlmx=46ns
+	tpclkqlhmx=44ns	tpclkqhlmx=44ns
+	twclkhmn=20ns	twclklmn=20ns
+	twpclmn=23ns	tsudclkmn=20ns
+	tsupcclkhmn=25ns	thdclkmn=3ns
+	)
*$
*---------
* 74HCT137  DECODER/DEMULTIPLEXER 3-8 LINE WITH ADDRESS LATCHES
*
* HIGH-SPEED CMOS LOGIC DATA BOOK, AUG 1989, TI
* JLS   8-4-92   REMODELED USING LOGICEXP, PINDLY, AND CONSTRAINT DEVICES
*    
.SUBCKT 74HCT137   G1_I G2BAR_I GLBAR_I A_I B_I C_I
+ Y0_O Y1_O Y2_O Y3_O Y4_O Y5_O Y6_O Y7_O
+ OPTIONAL: DPWR=$G_DPWR DGND=$G_DGND
+ PARAMS: MNTYMXDLY=0 IO_LEVEL=0
*
U1 DLTCH(3) DPWR DGND
+ $D_HI $D_HI LATCHEN
+  A     B     C
+ QA    QB    QC
+ QABAR QBBAR QCBAR
+ D0_GFF  IO_HCT
*
UHCT137LOG LOGICEXP (12,14) DPWR DGND
+ G1_I G2BAR_I GLBAR_I A_I B_I C_I QA QB QC QABAR QBBAR QCBAR
+              GLBAR   A   B   C   LATCHEN ENABLE
+ Y0 Y1 Y2 Y3 Y4 Y5 Y6 Y7
+ D0_GATE IO_HCT
+ IO_LEVEL={IO_LEVEL}
+
+ LOGIC:
+   G1      = { G1_I }
+   G2BAR   = { G2BAR_I }
+   GLBAR   = { GLBAR_I }
+   A       = { A_I }
+   B       = { B_I }
+   C       = { C_I }
+   LATCHEN = { ~GLBAR }
+   ENABLE  = { G1 & ~G2BAR }
+   Y0      = { ~(ENABLE & QCBAR & QBBAR & QABAR) }
+   Y1      = { ~(ENABLE & QCBAR & QBBAR & QA   ) }
+   Y2      = { ~(ENABLE & QCBAR & QB    & QABAR) }
+   Y3      = { ~(ENABLE & QCBAR & QB    & QA   ) }
+   Y4      = { ~(ENABLE & QC    & QBBAR & QABAR) }
+   Y5      = { ~(ENABLE & QC    & QBBAR & QA   ) }
+   Y6      = { ~(ENABLE & QC    & QB    & QABAR) }
+   Y7      = { ~(ENABLE & QC    & QB    & QA   ) }
*
UHCT137DLY PINDLY (8,0,5) DPWR DGND
+ Y0 Y1 Y2 Y3 Y4 Y5 Y6 Y7
+ ENABLE GLBAR A B C
+ Y0_O Y1_O Y2_O Y3_O Y4_O Y5_O Y6_O Y7_O
+ IO_HCT
+ MNTYMXDLY={MNTYMXDLY} IO_LEVEL={IO_LEVEL}
+
+ BOOLEAN:
+   ABLE  = { CHANGED(ENABLE,0) }
+   ABLEL = { CHANGED(GLBAR,0) }
+   ADDR  = { CHANGED(A,0) | CHANGED(B,0) | CHANGED(C,0) }
+
+ PINDLY:
+   Y0_O Y1_O Y2_O Y3_O Y4_O Y5_O Y6_O Y7_O = {
+     CASE (
+       ABLE , DELAY(-1,20NS,36NS),
+       ADDR , DELAY(-1,25NS,48NS),
+       ABLEL, DELAY(-1,32NS,52NS),
+       DELAY(-1,32NS,52NS)
+       )
+     }
+
+ WIDTH:
+   NODE      = GLBAR
+   MIN_LO    = 33NS
+ SETUP_HOLD:
+   DATA(3)   = A B C
+   CLOCK LH  = GLBAR
+   SETUPTIME = 19NS
+   HOLDTIME  =  5NS
*
.ENDS
*
*$
*---------
* 74HCT138  DECODER/DEMULTIPLEXER 3-8 LINE
*
* HIGH-SPEED CMOS LOGIC DATA BOOK, AUG 1989, TI
* JLS   8-4-92   REMODELED USING LOGICEXP, PINDLY, AND CONSTRAINT DEVICES
*    
.SUBCKT 74HCT138   G1_I G2ABAR_I G2BBAR_I A_I B_I C_I
+ Y0_O Y1_O Y2_O Y3_O Y4_O Y5_O Y6_O Y7_O
+ OPTIONAL: DPWR=$G_DPWR DGND=$G_DGND
+ PARAMS: MNTYMXDLY=0 IO_LEVEL=0
*
UHCT138LOG LOGICEXP (6,9) DPWR DGND
+ G1_I G2ABAR_I G2BBAR_I A_I B_I C_I
+ ENABLE
+ Y0 Y1 Y2 Y3 Y4 Y5 Y6 Y7
+ D0_GATE IO_HCT
+ IO_LEVEL={IO_LEVEL}
+
+ LOGIC:
+   G1     = { G1_I }
+   G2ABAR = { G2ABAR_I }
+   G2BBAR = { G2BBAR_I }
+   A      = { A_I }
+   B      = { B_I }
+   C      = { C_I }
+   ABAR   = { ~A }
+   BBAR   = { ~B }
+   CBAR   = { ~C }
+   ENABLE = { ~G2ABAR & ~G2BBAR & G1 }
+   Y0     = { ~(ENABLE & CBAR & BBAR & ABAR) }
+   Y1     = { ~(ENABLE & CBAR & BBAR & A   ) }
+   Y2     = { ~(ENABLE & CBAR & B    & ABAR) }
+   Y3     = { ~(ENABLE & CBAR & B    & A   ) }
+   Y4     = { ~(ENABLE & C    & BBAR & ABAR) }
+   Y5     = { ~(ENABLE & C    & BBAR & A   ) }
+   Y6     = { ~(ENABLE & C    & B    & ABAR) }
+   Y7     = { ~(ENABLE & C    & B    & A   ) }
*
UHCT138DLY PINDLY (8,0,1) DPWR DGND
+ Y0 Y1 Y2 Y3 Y4 Y5 Y6 Y7
+ ENABLE
+ Y0_O Y1_O Y2_O Y3_O Y4_O Y5_O Y6_O Y7_O
+ IO_HCT
+ MNTYMXDLY={MNTYMXDLY} IO_LEVEL={IO_LEVEL}
+
+ BOOLEAN:
+   ABLE = { CHANGED(ENABLE,0) }
+
+ PINDLY:
+   Y0_O Y1_O Y2_O Y3_O Y4_O Y5_O Y6_O Y7_O = {
+     CASE (
+       ABLE, DELAY(-1,22NS,42NS),
+       DELAY(-1,23NS,45NS)
+       )
+     }
*
.ENDS
*
*$
*--------
* 74HCT139  DECODER/DEMULTIPLEXER 2-4 LINE
*
* HIGH SPEED CMOS LOGIC FAMILY BOOK, 1991, PHILIPS SEMICONDUCTORS
* JLS   8-1-92   REMODELED USING LOGICEXP, PINDLY, AND CONSTRAINT DEVICES
*    
.SUBCKT 74HCT139   EBAR_I A0_I A1_I   O0BAR_O O1BAR_O O2BAR_O O3BAR_O
+ OPTIONAL: DPWR=$G_DPWR DGND=$G_DGND
+ PARAMS: MNTYMXDLY=0 IO_LEVEL=0
*
UHCT139LOG LOGICEXP (3,7) DPWR DGND
+ EBAR_I A0_I A1_I
+ EBAR   A0   A1
+ O0BAR O1BAR O2BAR O3BAR
+ D0_GATE IO_HCT
+ IO_LEVEL={IO_LEVEL}
+
+ LOGIC:
+   EBAR   = { EBAR_I }
+   A0     = { A0_I }
+   A1     = { A1_I }
+   A0BAR  = { ~A0 }
+   A1BAR  = { ~A1 }
+   ENABLE = { ~EBAR }
+   O0BAR  = { ~(ENABLE & A1BAR & A0BAR ) }
+   O1BAR  = { ~(ENABLE & A1BAR & A0    ) }
+   O2BAR  = { ~(ENABLE & A1    & A0BAR ) }
+   O3BAR  = { ~(ENABLE & A1    & A0    ) }
*
UHCT139DLY PINDLY (4,0,3) DPWR DGND
+ O0BAR O1BAR O2BAR O3BAR
+ EBAR A0 A1
+ O0BAR_O O1BAR_O O2BAR_O O3BAR_O
+ IO_HCT
+ MNTYMXDLY={MNTYMXDLY} IO_LEVEL={IO_LEVEL}
+
+ BOOLEAN:
+   ABLE = { CHANGED(EBAR,0) }
+   ADDR = { CHANGED(A0,0) | CHANGED(A1,0) }
+
+ PINDLY:
+   O0BAR_O O1BAR_O O2BAR_O O3BAR_O = { DELAY(-1,16NS,43NS) }
*
.ENDS
*
*$
*---------
* 74HCT147  PRIORITY ENCODER 10-4 LINE
*
* HIGH SPEED CMOS LOGIC FAMILY BOOK, 1991, PHILIPS SEMICONDUCTORS
* JLS   8-26-92   REMODELED USING LOGICEXP, PINDLY, AND CONSTRAINT DEVICES
*
.SUBCKT 74HCT147   IN1_I IN2_I IN3_I IN4_I IN5_I IN6_I IN7_I IN8_I IN9_I
+ A_O B_O C_O D_O
+ OPTIONAL: DPWR=$G_DPWR DGND=$G_DGND
+ PARAMS: MNTYMXDLY=0 IO_LEVEL=0
*
UHCT147LOG LOGICEXP (9,13) DPWR DGND
+ IN1_I IN2_I IN3_I IN4_I IN5_I IN6_I IN7_I IN8_I IN9_I
+ IN1   IN2   IN3   IN4   IN5   IN6   IN7   IN8   IN9
+ A B C D
+ D0_GATE IO_HCT
+ IO_LEVEL={IO_LEVEL}
+
+ LOGIC:
+ IN1    = { IN1_I }
+ IN2    = { IN2_I }
+ IN3    = { IN3_I }
+ IN4    = { IN4_I }
+ IN5    = { IN5_I }
+ IN6    = { IN6_I }
+ IN7    = { IN7_I }
+ IN8    = { IN8_I }
+ IN9    = { IN9_I }
+ IN1BAR = { ~IN1 }
+ IN2BAR = { ~IN2 }
+ IN3BAR = { ~IN3 }
+ IN4BAR = { ~IN4 }
+ IN5BAR = { ~IN5 }
+ IN6BAR = { ~IN6 }
+ IN7BAR = { ~IN7 }
+ IN8BAR = { ~IN8 }
+ IN9BAR = { ~IN9 }
+
+ D      = { IN8 & IN9 }
+ C      = { ~(D & (IN4BAR | IN5BAR | IN6BAR | IN7BAR)) }
+ B      = { ~(D & ((IN2BAR & IN4 & IN5) |
+                       (IN3BAR & IN4 & IN5) | IN6BAR | IN7BAR)) }
+ A      = { ~(IN9BAR | D & ((IN1BAR & IN2 & IN4 & IN6) |
+                       (IN3BAR & IN4 & IN6) | (IN5BAR & IN6) | IN7BAR)) }
*
UHCT147DLY PINDLY (4,0,9) DPWR DGND
+ A B C D
+ IN1 IN2 IN3 IN4 IN5 IN6 IN7 IN8 IN9
+ A_O B_O C_O D_O
+ IO_HCT
+ MNTYMXDLY={MNTYMXDLY} IO_LEVEL={IO_LEVEL}
+
+ PINDLY:
+   A_O B_O C_O D_O = { DELAY(-1,20NS,44NS) }
*
.ENDS
*
*$
*---------
* 74HCT148  PRIORITY ENCODER 8-3 LINE
*
* CMOS LOGIC DATABOOK, 1988, NATIONAL SEMICONDUCTOR
* JLS   8-26-92   REMODELED USING LOGICEXP, PINDLY, AND CONSTRAINT DEVICES
*
.SUBCKT 74HCT148   IN0_I IN1_I IN2_I IN3_I IN4_I IN5_I IN6_I IN7_I EI_I
+ A0_O A1_O A2_O GS_O EO_O
+ OPTIONAL: DPWR=$G_DPWR DGND=$G_DGND
+ PARAMS: MNTYMXDLY=0 IO_LEVEL=0
*
UHCT148LOG LOGICEXP (9,14) DPWR DGND
+ IN0_I IN1_I IN2_I IN3_I IN4_I IN5_I IN6_I IN7_I EI_I
+ IN0   IN1   IN2   IN3   IN4   IN5   IN6   IN7   EI
+ A0 A1 A2 GS EO
+ D0_GATE IO_HCT
+ IO_LEVEL={IO_LEVEL}
+
+ LOGIC:
+ IN0    = { IN0_I }
+ IN1    = { IN1_I }
+ IN2    = { IN2_I }
+ IN3    = { IN3_I }
+ IN4    = { IN4_I }
+ IN5    = { IN5_I }
+ IN6    = { IN6_I }
+ IN7    = { IN7_I }
+ EI     = { EI_I }
+ IN0BAR = { ~IN0 }
+ IN1BAR = { ~IN1 }
+ IN2BAR = { ~IN2 }
+ IN3BAR = { ~IN3 }
+ IN4BAR = { ~IN4 }
+ IN5BAR = { ~IN5 }
+ IN6BAR = { ~IN6 }
+ IN7BAR = { ~IN7 }
+ EIBAR  = { ~EI }
+
+ A0     = { ~(EIBAR & ((IN1BAR & IN2 & IN4 & IN6) |
+                       (IN3BAR & IN4 & IN6) | (IN5BAR & IN6) | IN7BAR)) }
+ A1     = { ~(EIBAR & ((IN2BAR & IN4 & IN5) |
+                       (IN3BAR & IN4 & IN5) | IN6BAR | IN7BAR)) }
+ A2     = { ~(EIBAR & (IN4BAR | IN5BAR | IN6BAR | IN7BAR)) }
+ EO     = { ~(IN0 & IN1 & IN2 & IN3 & IN4 & IN5 & IN6 & IN7 & EIBAR) }
+ GS     = { ~(EO & EIBAR) }
*
UHCT148DLY PINDLY (5,0,9) DPWR DGND
+ A0 A1 A2 GS EO
+ IN0 IN1 IN2 IN3 IN4 IN5 IN6 IN7 EI
+ A0_O A1_O A2_O GS_O EO_O
+ IO_HCT
+ MNTYMXDLY={MNTYMXDLY} IO_LEVEL={IO_LEVEL}
+
+ BOOLEAN:
+   DATAHI   = { IN7=='1 & IN6=='1 & IN5=='1 & IN4=='1 &
+                IN3=='1 & IN2=='1 & IN1=='1 & IN0=='1 }
+   ENABLE   = { CHANGED(EI,0) }
+
+ PINDLY:
+   A2_O A1_O A0_O = {
+     CASE (
+       ENABLE, DELAY(-1,16NS,36NS),
+       DELAY(-1,13NS,29NS)
+       )
+     }
+   GS_O = {
+     CASE (
+       ENABLE, DELAY(-1,11NS,27NS),
+       DELAY(-1,14NS,33NS)
+       )
+     }
+   EO_O = {
+     CASE (
+       ENABLE, DELAY(-1,13NS,29NS),
+       DELAY(-1,12NS,28NS)
+       )
+     }
*
.ENDS
*
*$
*---------
* 74HCT151  MULTIPLEXER/DATA SELECTOR 8-1 LINE
*
* HIGH SPEED CMOS LOGIC FAMILY BOOK, 1991, PHILIPS SEMICONDUCTORS
* TC  08/21/92  REMODELED USING LOGICEXP, PINDLY, & CONSTRAINT DEVICES
*
.SUBCKT 74HCT151 GBAR_I A_I B_I C_I D0_I D1_I D2_I D3_I D4_I D5_I D6_I D7_I
+ Y_O W_O
+ OPTIONAL: DPWR=$G_DPWR DGND=$G_DGND
+ PARAMS: MNTYMXDLY=0 IO_LEVEL=0
*
UHCT151LOG LOGICEXP(12,14) DPWR DGND
+ GBAR_I A_I B_I C_I D0_I D1_I D2_I D3_I D4_I D5_I D6_I D7_I
+ GBAR A B C D0 D1 D2 D3 D4 D5 D6 D7 W Y
+ D0_GATE IO_HCT IO_LEVEL={IO_LEVEL}
+ LOGIC:
+   GBAR = { GBAR_I }
+   A = { A_I }
+   B = { B_I }
+   C = { C_I }
+   D0 = { D0_I }
+   D1 = { D1_I }
+   D2 = { D2_I }
+   D3 = { D3_I }
+   D4 = { D4_I }
+   D5 = { D5_I }
+   D6 = { D6_I }
+   D7 = { D7_I }
+   IA = { ~A }
+   IB = { ~B }
+   IC = { ~C }
+   IG = { ~GBAR }
+   ID0 = { D0 & IA & IB & IC & IG }
+   ID1 = { D1 & A & IB & IC & IG }
+   ID2 = { D2 & IA & B & IC & IG }
+   ID3 = { D3 & A & B & IC & IG }
+   ID4 = { D4 & IA & IB & C & IG }
+   ID5 = { D5 & A & IB & C & IG }
+   ID6 = { D6 & IA & B & C & IG }
+   ID7 = { D7 & A & B & C & IG }
+   W = { ~(ID0 | ID1 | ID2 | ID3 | ID4 | ID5 | ID6 | ID7) }
+   Y = { ~W }
*
UHCT151DLY PINDLY (2,0,12) DPWR DGND
+ W Y
+ GBAR A B C D0 D1 D2 D3 D4 D5 D6 D7
+ W_O Y_O
+ IO_HCT MNTYMXDLY={MNTYMXDLY} IO_LEVEL={IO_LEVEL}
+ BOOLEAN:
+   DATA = { CHANGED(D0,0) | CHANGED(D1,0) | CHANGED(D2,0) | CHANGED(D3,0) |
+     CHANGED(D4,0) | CHANGED(D5,0) | CHANGED(D6,0) | CHANGED(D7,0) }
+   SELECT = { CHANGED(A,0) | CHANGED(B,0) | CHANGED(C,0) }
+ PINDLY:
+   Y_O = {
+     CASE(
+       SELECT, DELAY(-1,23NS,51NS),
+       DATA, DELAY(-1,22NS,48NS),
+       CHANGED(GBAR,0), DELAY(-1,16NS,36NS),
+       DELAY(-1,24NS,52NS)
+       )
+     }
+   W_O = {
+     CASE(
+       SELECT, DELAY(-1,25NS,54NS),
+       DATA, DELAY(-1,22NS,48NS),
+       CHANGED(GBAR,0), DELAY(-1,21NS,45NS),
+       DELAY(-1,26NS,55NS)
+       )
+     }
*
.ENDS
*
*$
*---------
* 74HCT154  DECODER/DEMULTIPLEXER 4-16 LINE
*
* HIGH SPEED CMOS LOGIC FAMILY BOOK, 1991, PHILIPS SEMICONDUCTORS
* JLS   8-6-92   REMODELED USING LOGICEXP, PINDLY, AND CONSTRAINT DEVICES
*    
.SUBCKT 74HCT154   E0BAR_I E1BAR_I A0_I A1_I A2_I A3_I
+ Y0_O Y1_O  Y2_O  Y3_O  Y4_O  Y5_O  Y6_O  Y7_O
+ Y8_O Y9_O Y10_O Y11_O Y12_O Y13_O Y14_O Y15_O
+ OPTIONAL: DPWR=$G_DPWR DGND=$G_DGND
+ PARAMS: MNTYMXDLY=0 IO_LEVEL=0
*
UHCT154LOG LOGICEXP (6,21) DPWR DGND
+ E0BAR_I E1BAR_I A0_I A1_I A2_I A3_I
+ ENABLE          A0   A1   A2   A3
+ Y0 Y1 Y2 Y3 Y4 Y5 Y6 Y7 Y8 Y9 Y10 Y11 Y12 Y13 Y14 Y15
+ D0_GATE IO_HCT
+ IO_LEVEL={IO_LEVEL}
+
+ LOGIC:
+   E0BAR  = { E0BAR_I }
+   E1BAR  = { E1BAR_I }
+   ENABLE = { ~(E0BAR | E1BAR) }
+   A0     = { A0_I }
+   A1     = { A1_I }
+   A2     = { A2_I }
+   A3     = { A3_I }
+   A0BAR  = { ~A0 }
+   A1BAR  = { ~A1 }
+   A2BAR  = { ~A2 }
+   A3BAR  = { ~A3 }
+   Y0     = { ~(ENABLE & A3BAR & A2BAR & A1BAR & A0BAR) }
+   Y1     = { ~(ENABLE & A3BAR & A2BAR & A1BAR & A0   ) }
+   Y2     = { ~(ENABLE & A3BAR & A2BAR & A1    & A0BAR) }
+   Y3     = { ~(ENABLE & A3BAR & A2BAR & A1    & A0   ) }
+   Y4     = { ~(ENABLE & A3BAR & A2    & A1BAR & A0BAR) }
+   Y5     = { ~(ENABLE & A3BAR & A2    & A1BAR & A0   ) }
+   Y6     = { ~(ENABLE & A3BAR & A2    & A1    & A0BAR) }
+   Y7     = { ~(ENABLE & A3BAR & A2    & A1    & A0   ) }
+   Y8     = { ~(ENABLE & A3    & A2BAR & A1BAR & A0BAR) }
+   Y9     = { ~(ENABLE & A3    & A2BAR & A1BAR & A0   ) }
+   Y10    = { ~(ENABLE & A3    & A2BAR & A1    & A0BAR) }
+   Y11    = { ~(ENABLE & A3    & A2BAR & A1    & A0   ) }
+   Y12    = { ~(ENABLE & A3    & A2    & A1BAR & A0BAR) }
+   Y13    = { ~(ENABLE & A3    & A2    & A1BAR & A0   ) }
+   Y14    = { ~(ENABLE & A3    & A2    & A1    & A0BAR) }
+   Y15    = { ~(ENABLE & A3    & A2    & A1    & A0   ) }
*
UHCT154DLY PINDLY (16,0,5) DPWR DGND
+ Y0 Y1 Y2 Y3 Y4 Y5 Y6 Y7 Y8 Y9 Y10 Y11 Y12 Y13 Y14 Y15
+ ENABLE A0 A1 A2 A3
+ Y0_O Y1_O  Y2_O  Y3_O  Y4_O  Y5_O  Y6_O  Y7_O
+ Y8_O Y9_O Y10_O Y11_O Y12_O Y13_O Y14_O Y15_O
+ IO_HCT
+ MNTYMXDLY={MNTYMXDLY} IO_LEVEL={IO_LEVEL}
+
+ BOOLEAN:
+   ABLE = { CHANGED(ENABLE,0) }
+   ADDR = { CHANGED(A0,0) | CHANGED(A1,0) | CHANGED(A2,0) | CHANGED(A3,0) }
+
+ PINDLY:
+   Y0_O Y1_O  Y2_O  Y3_O  Y4_O  Y5_O  Y6_O  Y7_O
+   Y8_O Y9_O Y10_O Y11_O Y12_O Y13_O Y14_O Y15_O = {
+     CASE (
+       ABLE, DELAY(-1,15NS,40NS),
+       ADDR, DELAY(-1,16NS,44NS),
+       DELAY(-1,16NS,44NS)
+       )
+     }
*
.ENDS
*
*$
*---------
* 74HCT155  DECODER/DEMULTIPLEXER 2-4 LINE
*
* HIGH-SPEED CMOS LOGIC DATA BOOK, 1990, GOLDSTAR SEMICONDUCTORS
* JLS   7-29-92   REMODELED USING LOGICEXP, PINDLY, AND CONSTRAINT DEVICES
*    
.SUBCKT 74HCT155   G1BAR_I G2BAR_I A_I B_I C1_I C2BAR_I
+ 1Y0_O 1Y1_O 1Y2_O 1Y3_O 2Y0_O 2Y1_O 2Y2_O 2Y3_O
+ OPTIONAL: DPWR=$G_DPWR DGND=$G_DGND
+ PARAMS: MNTYMXDLY=0 IO_LEVEL=0
*
UHCT155LOG LOGICEXP (6,14) DPWR DGND
+ G1BAR_I G2BAR_I A_I B_I C1_I C2BAR_I
+         G2BAR   A   B   C2BAR      ENABLE1 ENABLE2
+ 1Y0 1Y1 1Y2 1Y3 2Y0 2Y1 2Y2 2Y3
+ D0_GATE IO_HCT
+ IO_LEVEL={IO_LEVEL}
+
+ LOGIC:
+   G1BAR   = { G1BAR_I }
+   G2BAR   = { G2BAR_I }
+   A       = { A_I }
+   B       = { B_I }
+   C1      = { C1_I }
+   C2BAR   = { C2BAR_I }
+   ABAR    = { ~A }
+   BBAR    = { ~B }
+   ENABLE1 = { ~G1BAR &  C1 }
+   ENABLE2 = { ~G2BAR & ~C2BAR }
+
+   1Y0     = { ~(ENABLE1 & BBAR & ABAR) }
+   1Y1     = { ~(ENABLE1 & BBAR & A   ) }
+   1Y2     = { ~(ENABLE1 & B    & ABAR) }
+   1Y3     = { ~(ENABLE1 & B    & A   ) }
+
+   2Y0     = { ~(ENABLE2 & BBAR & ABAR) }
+   2Y1     = { ~(ENABLE2 & BBAR & A   ) }
+   2Y2     = { ~(ENABLE2 & B    & ABAR) }
+   2Y3     = { ~(ENABLE2 & B    & A   ) }
*
UHCT155DLY PINDLY (8,0,6) DPWR DGND
+ 1Y0 1Y1 1Y2 1Y3 2Y0 2Y1 2Y2 2Y3
+ G2BAR A B C2BAR ENABLE1 ENABLE2
+ 1Y0_O 1Y1_O 1Y2_O 1Y3_O 2Y0_O 2Y1_O 2Y2_O 2Y3_O
+ IO_HCT
+ MNTYMXDLY={MNTYMXDLY} IO_LEVEL={IO_LEVEL}
+
+ BOOLEAN:
+   ABLE   = { CHANGED(ENABLE1,0) |
+             (CHANGED(G2BAR,0) & CHANGED(ENABLE2,0)) }
+   ADDR   = { CHANGED(A,0) | CHANGED(B,0) }
+   ADDRC2 = { CHANGED(C2BAR,0) & CHANGED(ENABLE2,0) }
+
+ PINDLY:
+   1Y0_O 1Y1_O 1Y2_O 1Y3_O 2Y0_O 2Y1_O 2Y2_O 2Y3_O = {
+     CASE (
+       ADDR  , DELAY(-1,22NS,42NS),
+       ADDRC2, DELAY(-1,22NS,42NS),
+       ABLE  , DELAY(-1,25NS,52NS),
+       DELAY(-1,25NS,52NS)
+       )
+     }
*
.ENDS
*
*$
*---------
*74HCT164  8-BIT PARALLEL-OUT SERIAL SHIFT REGISTERS
*
* HIGH-SPEED CMOS DATA BOOK 1989, SIG
* KN   7-6-92        REMODELED USING LOGICEXP, PINDLY, CONSTRAINT DEVICES
*
.SUBCKT 74HCT164  MRBAR_I CP_I A_I B_I Q0_O Q1_O Q2_O Q3_O Q4_O Q5_O Q6_O Q7_O
+      OPTIONAL: DPWR=$G_DPWR DGND=$G_DGND
+      PARAMS: MNTYMXDLY=0 IO_LEVEL=0
*
U1 BUFA(4) DPWR DGND
+ MRBAR_I CP_I A_I B_I  MRBAR CP A B
+ D0_GATE IO_HCT  IO_LEVEL={IO_LEVEL}
*
U2 AND(2) DPWR DGND
+ A B IN
+ D0_GATE IO_HCT 
*
U3 DFF(8) DPWR DGND
+ $D_HI   MRBAR  CP
+ IN  Q0  Q1  Q2  Q3  Q4  Q5  Q6
+ Q0  Q1  Q2  Q3  Q4  Q5  Q6  Q7
+ $D_NC   $D_NC   $D_NC   $D_NC   $D_NC   $D_NC   $D_NC   $D_NC
+ D0_EFF IO_HCT 
*
UHCT164DLY PINDLY (8,0,4) DPWR DGND
+ Q0 Q1 Q2 Q3 Q4 Q5 Q6 Q7
+ MRBAR CP A B
+ Q0_O Q1_O Q2_O Q3_O Q4_O Q5_O Q6_O Q7_O
+ IO_HCT  MNTYMXDLY={MNTYMXDLY} IO_LEVEL={IO_LEVEL}
+ PINDLY:
+   Q0_O Q1_O Q2_O Q3_O Q4_O Q5_O Q6_O Q7_O = {
+     CASE(
+       CHANGED_LH(CP,0), DELAY(-1,17NS,45NS),
+       CHANGED_HL(MRBAR,0), DELAY(-1,19NS,48NS),
+       DELAY(-1,20NS,49NS)  ;DEFAULT
+       )
+     }
+
+ FREQ:
+   NODE = CP
+   MAXFREQ = 22MEG
+
+ WIDTH:
+   NODE = CP
+   MIN_HIGH = 23NS
+   MIN_LOW = 23NS
+
+ WIDTH:
+   NODE = MRBAR
+   MIN_LOW = 23NS
+
+ SETUP_HOLD:
+   CLOCK LH = CP
+   DATA(2) A B
+   SETUPTIME =15NS
+   HOLDTIME = 4NS
+   WHEN = { MRBAR != '0 }
+
+ SETUP_HOLD:
+   CLOCK LH = CP
+   DATA(1) MRBAR
+   RELEASETIME_LH = 20NS
+
*
.ENDS
*
*$
*--------
* 74HCT165  8-BIT PARALLEL IN/SERIAL OUT SHIFT REGISTERS
*
* HIGH-SPEED CMOS LOGIC ICS DATA BOOK, 1989, HARRIS SEMICONDUCTOR
* NH 7/28/92            REMODELED USING LOGICEXP, PINDLY, CONSTRAINT DEVICES
*
.SUBCKT 74HCT165 PLBAR_I CEBAR_I CP_I DS_I D0_I D1_I D2_I D3_I D4_I D5_I D6_I
+ D7_I Q7_O Q7BAR_O
+ OPTIONAL: DPWR=$G_DPWR   DGND=$G_DGND
+ PARAMS:   MNTYMXDLY=0    IO_LEVEL=0
*
UHCT165LOG LOGICEXP(12,29) DPWR DGND
+ PLBAR_I CEBAR_I CP_I DS_I D0_I D1_I D2_I D3_I D4_I D5_I D6_I D7_I
+ PLBAR CEBAR CP DS D0 D1 D2 D3 D4 D5 D6 D7 SD0 SD1 SD2 SD3 SD4 SD5 SD6 SD7
+ RD0 RD1 RD2 RD3 RD4 RD5 RD6 RD7 CK
+ D0_GATE  IO_HCT  IO_LEVEL={IO_LEVEL}
+
+ LOGIC:
+
+   PLBAR = { PLBAR_I }
+   CEBAR = { CEBAR_I }
+   CP = { CP_I }
+   DS = { DS_I }
+   D0 = { D0_I }
+   D1 = { D1_I }
+   D2 = { D2_I }
+   D3 = { D3_I }
+   D4 = { D4_I }
+   D5 = { D5_I }
+   D6 = { D6_I }
+   D7 = { D7_I }
+
* INTERMEDIATE TERM
+   PL = { ~PLBAR }
+
+   SD0 = { (PLBAR | ~D0) }
+   SD1 = { (PLBAR | ~D1) }
+   SD2 = { (PLBAR | ~D2) }
+   SD3 = { (PLBAR | ~D3) }
+   SD4 = { (PLBAR | ~D4) }
+   SD5 = { (PLBAR | ~D5) }
+   SD6 = { (PLBAR | ~D6) }
+   SD7 = { (PLBAR | ~D7) }
+
+   RD0 = { ~(PL & ~D0) }
+   RD1 = { ~(PL & ~D1) }
+   RD2 = { ~(PL & ~D2) }
+   RD3 = { ~(PL & ~D3) }
+   RD4 = { ~(PL & ~D4) }
+   RD5 = { ~(PL & ~D5) }
+   RD6 = { ~(PL & ~D6) }
+   RD7 = { ~(PL & ~D7) }
+
+   CK = { (CEBAR & PLBAR) | (CP & PLBAR) }
*
U1 DFF(1) DPWR DGND SD0 RD0 CK DS QD0 $D_NC
+ D0_EFF  IO_HCT
*
U2 DFF(1) DPWR DGND SD1 RD1 CK QD0 QD1 $D_NC
+ D0_EFF  IO_HCT
*
U3 DFF(1) DPWR DGND SD2 RD2 CK QD1 QD2 $D_NC
+ D0_EFF  IO_HCT
*
U4 DFF(1) DPWR DGND SD3 RD3 CK QD2 QD3 $D_NC
+ D0_EFF  IO_HCT
*
U5 DFF(1) DPWR DGND SD4 RD4 CK QD3 QD4 $D_NC
+ D0_EFF  IO_HCT
*
U6 DFF(1) DPWR DGND SD5 RD5 CK QD4 QD5 $D_NC
+ D0_EFF  IO_HCT
*
U7 DFF(1) DPWR DGND SD6 RD6 CK QD5 QD6 $D_NC
+ D0_EFF  IO_HCT
*
U8 DFF(1) DPWR DGND SD7 RD7 CK QD6 Q7 Q7BAR
+ D0_EFF  IO_HCT
*
UHCT165DLY PINDLY (2,0,12) DPWR DGND
+ Q7 Q7BAR
+ PLBAR CP D7 CEBAR DS D0 D1 D2 D3 D4 D5 D6
+ Q7_O Q7BAR_O
+ IO_HCT
+ MNTYMXDLY={MNTYMXDLY}   IO_LEVEL={IO_LEVEL}
+
+ BOOLEAN:
+   LMODE = { PLBAR=='0 }
+   SMODE = { PLBAR=='1 }
+   CH_D7 = { CHANGED(D7,0) }
+
+ PINDLY:
+   Q7_O Q7BAR_O = {
+     CASE(
+       CH_D7 & LMODE, DELAY(-1,-1,44NS),
+       CHANGED_LH(CP,0) & SMODE, DELAY(-1,-1,50NS),
+       CHANGED_HL(PLBAR,0), DELAY(-1,-1,50NS),
+       DELAY(-1,-1,51NS)            ;DEFAULT
+       )
+     }
+
+ FREQ:
+   NODE = CP
+   MAXFREQ = 22MEG
+
+ WIDTH:
+   NODE = CP
+   MIN_LO = 23NS
+   MIN_HI = 23NS
+
+ WIDTH:
+   NODE = PLBAR
+   MIN_LO = 25NS
+
+ SETUP_HOLD:
+   DATA(1) = CEBAR
+   CLOCK LH = CP
+   SETUPTIME_LO = 25NS
+   MESSAGE = "CLOCK ENABLE SETUP TIME IS NOT MET"
+
+ SETUP_HOLD:
+   DATA(1) = PLBAR
+   CLOCK LH = CP
+   SETUPTIME_HI = 25NS
+
+ SETUP_HOLD:
+   DATA(1) = DS
+   CLOCK LH = CP
+   SETUPTIME = 25NS
+   HOLDTIME = 9NS
+   WHEN = { (PLBAR!='0 ^ CHANGED(PLBAR,0)) }
+
+ SETUP_HOLD:
+   DATA(8) = D0 D1 D2 D3 D4 D5 D6 D7
+   CLOCK LH = PLBAR
+   SETUPTIME = 25NS
*
.ENDS
*
*$
*---------
* 74HCT166  PARALLEL LOAD 8-BIT SHIFT REGISTERS
*
* CMOS LOGIC DATABOOK, 1988, NATIONAL SEMICONDUCTOR
* NH   7-22-92      REMODELED USING LOGICEXP, PINDLY, CONSTRAINT DEVICES
*
.SUBCKT 74HCT166 CLRBAR_I SH/LDBAR_I CLK_INH_I CLK_I SER_I A_I B_I C_I D_I E_I
+ F_I G_I H_I QH_O
+ OPTIONAL: DPWR=$G_DPWR   DGND=$G_DGND
+ PARAMS:   MNTYMXDLY=0    IO_LEVEL=0
*
UHCT166LOG LOGICEXP(20,30) DPWR DGND
+ CLRBAR_I SH/LDBAR_I CLK_INH_I CLK_I SER_I A_I B_I C_I D_I E_I F_I G_I H_I
+  QA QB QC QD QE QF QG
+ CLRBAR SH/LDBAR CLK_INH CLK SER A B C D E F G H JA JB JC JD JE JF JG JH
+  KA KB KC KD KE KF KG KH CK
+ D0_GATE  IO_HCT  IO_LEVEL={IO_LEVEL}
+
+ LOGIC:
+   CLRBAR    = { CLRBAR_I }
+   SH/LDBAR  = { SH/LDBAR_I }
+   CLK_INH   = { CLK_INH_I }
+   CLK       = { CLK_I }
+   SER       = { SER_I }
+   A         = { A_I }
+   B         = { B_I }
+   C         = { C_I }
+   D         = { D_I }
+   E         = { E_I }
+   F         = { F_I }
+   G         = { G_I }
+   H         = { H_I }
+
* INTERMEDIATE TERM
+   LOAD = { ~SH/LDBAR }
+
+   KA = { ~((SH/LDBAR & SER) | (LOAD & A)) }
+   KB = { ~((SH/LDBAR & QA)  | (LOAD & B)) }
+   KC = { ~((SH/LDBAR & QB)  | (LOAD & C)) }
+   KD = { ~((SH/LDBAR & QC)  | (LOAD & D)) }
+   KE = { ~((SH/LDBAR & QD)  | (LOAD & E)) }
+   KF = { ~((SH/LDBAR & QE)  | (LOAD & F)) }
+   KG = { ~((SH/LDBAR & QF)  | (LOAD & G)) }
+   KH = { ~((SH/LDBAR & QG)  | (LOAD & H)) }
+   JA = { ~KA }
+   JB = { ~KB }
+   JC = { ~KC }
+   JD = { ~KD }
+   JE = { ~KE }
+   JF = { ~KF }
+   JG = { ~KG }
+   JH = { ~KH }
+   CK = { ~(CLK | CLK_INH) }
*
U1 JKFF(8) DPWR DGND  $D_HI CLRBAR CK
+ JA JB JC JD JE JF JG JH KA KB KC KD KE KF KG KH
+ QA QB QC QD QE QF QG QH $D_NC $D_NC $D_NC $D_NC $D_NC $D_NC $D_NC $D_NC
+ D0_EFF  IO_HCT
*
UHCT166DLY PINDLY (1,0,13) DPWR DGND
+ QH
+ CLRBAR CLK SH/LDBAR CLK_INH SER A B C D E F G H
+ QH_O
+ IO_HCT
+ MNTYMXDLY={MNTYMXDLY}   IO_LEVEL={IO_LEVEL}
+
+   PINDLY:
+    QH_O = {
+     CASE(
+       CHANGED_HL(CLRBAR,0) & TRN_HL, DELAY(-1,23NS,41NS),
+       CHANGED_LH(CLK,0), DELAY(-1,25NS,43NS),
+       DELAY(-1,26NS,44NS);  DEFAULT
+       )
+     }
+
+ BOOLEAN:
+   ACTIVE_MODE = { CLRBAR!='0 & CLK_INH!='1 }
+
+ FREQ:
+   NODE = CLK
+   MAXFREQ = 25MEG
+
+ WIDTH:
+   NODE = CLK
+   MIN_HI = 20NS
+   MIN_LO = 20NS
+
+ WIDTH:
+   NODE = CLRBAR
+   MIN_LO = 20NS
+
+ SETUP_HOLD:
+   DATA(1) SH/LDBAR
+   CLOCK LH = CLK
+   SETUPTIME = 20NS
+   WHEN = { ACTIVE_MODE }
+
+ SETUP_HOLD:
+   DATA(8) A B C D E F G H
+   CLOCK LH = CLK
+   SETUPTIME = 20NS
+   HOLDTIME = 3NS
+   WHEN = { ACTIVE_MODE & (SH/LDBAR!='1 ^ CHANGED(SH/LDBAR,0)) }
+
+ SETUP_HOLD:
+   DATA(1) SER
+   CLOCK LH = CLK
+   SETUPTIME = 20NS
+   HOLDTIME = 3NS
+   WHEN = { ACTIVE_MODE & (SH/LDBAR!='0 ^ CHANGED(SH/LDBAR,0)) }
*
.ENDS
*
*$
*---------
* 74HCT173  REGISTERS D-TYPE 4-BIT WITH 3-STATE OUTPUTS
*
* HIGH SPEED CMOS LOGIC FAMILY BOOK, 1991, PHILIPS SEMICONDUCTORS
* JLS   7-9-92   REMODELED USING LOGICEXP, PINDLY, AND CONSTRAINT DEVICES
* rbh   11/11/92	Added bus I/O model
*
.SUBCKT 74HCT173   MR_I CP_I E0BAR_I E1BAR_I OE0BAR_I OE1BAR_I
+ D0_I D1_I D2_I D3_I   Q0_O Q1_O Q2_O Q3_O
+ OPTIONAL: DPWR=$G_DPWR DGND=$G_DGND
+ PARAMS: MNTYMXDLY=0 IO_LEVEL=0
*
U1 DFF(4) DPWR DGND
+ $D_HI MRBAR CP
+ DFF1  DFF2  DFF3  DFF4
+ Q0    Q1    Q2    Q3
+ $D_NC $D_NC $D_NC $D_NC
+ D0_EFF  IO_HCT
*
UHCT173LOG LOGICEXP (14,13) DPWR DGND
+ MR_I  CP_I E0BAR_I E1BAR_I OE0BAR_I OE1BAR_I D0_I D1_I D2_I D3_I Q0 Q1 Q2 Q3
+ MR MRBAR CP DATEN OE D0 D1 D2 D3
+ DFF1 DFF2 DFF3 DFF4
+ D0_GATE IO_HCT
+ IO_LEVEL={IO_LEVEL}
+
+ LOGIC:
+   MR       = { MR_I }
+   MRBAR    = { ~MR }
+   CP       = { CP_I }