* Library of 74L Family Digital Models
*
*  Copyright OrCAD, Inc. 1998 All Rights Reserved.
*
*
* $Revision:   1.4  $
* $Author:   RPEREZ  $
* $Date:   16 Apr 1998 15:55:42  $
*
*
*$
*---------
* 54L00  Quadruple 2-input Positive-Nand Gates
*
* The TTL Data Book, Vol 2, 1985, TI
* tdn   06/23/89	Update interface and model names  
*
.subckt 54L00  A B Y
+	optional: DPWR=$G_DPWR DGND=$G_DGND
+	params: MNTYMXDLY=0 IO_LEVEL=0
U1 nand(2) DPWR DGND
+	A B   Y 
+	D_L00 IO_L MNTYMXDLY={MNTYMXDLY} IO_LEVEL={IO_LEVEL} 
.ends
*
.model D_L00 ugate (
+	tplhty=35ns	tplhmx=60ns
+	tphlty=31ns	tphlmx=60ns
+	)
*$
*---------
* 54L02  Quadruple 2-input Positive-Nor Gates
*
* The TTL Data Book, Vol 2, 1985, TI
* tdn	06/23/89	Update interface and model names
*
.subckt 54L02  A B Y
+	optional: DPWR=$G_DPWR DGND=$G_DGND
+	params: MNTYMXDLY=0 IO_LEVEL=0
U1 nor(2) DPWR DGND
+	A B   Y 
+	D_L02 IO_L MNTYMXDLY={MNTYMXDLY} IO_LEVEL={IO_LEVEL} 
.ends
*
.model D_L02 ugate (
+	tplhty=31ns	tplhmx=60ns
+	tphlty=35ns	tphlmx=60ns
+	)
*$
*---------
* 54L03  Quadruple 2-input Positive-Nand Gates with Open-Collector Outputs
*
* The TTL Data Book, Vol 2, 1985, TI
* tdn	06/23/89	Update interface and model names
*
.subckt 54L03  A B Y
+	optional: DPWR=$G_DPWR DGND=$G_DGND
+	params: MNTYMXDLY=0 IO_LEVEL=0
U1 nand(2) DPWR DGND
+	A B   Y 
+	D_L03 IO_L_OC MNTYMXDLY={MNTYMXDLY} IO_LEVEL={IO_LEVEL} 
.ends
*
.model D_L03 ugate (
+	tplhty=60ns	tplhmx=90ns
+	tphlty=33ns	tphlmx=60ns
+	)
*$
*---------
* 54L04  Hex Inverters
* 
* The TTL Data Book, Vol 2, 1985, TI
* tdn	06/23/89	Update interface and model names
*
.subckt 54L04  A Y
+	optional: DPWR=$G_DPWR DGND=$G_DGND
+	params: MNTYMXDLY=0 IO_LEVEL=0
U1 inv DPWR DGND
+	A   Y 
+	D_L04 IO_L MNTYMXDLY={MNTYMXDLY} IO_LEVEL={IO_LEVEL} 
.ends
*
.model D_L04 ugate (
+	tplhty=35ns	tplhmx=60ns
+	tphlty=31ns	tphlmx=60ns
+	)
*$
*---------
* 74L10  Triple 3-input Positive-Nand Gates
*
* The TTL Data Book, Vol 2, 1985, TI
* tdn	06/23/89	Update interface and model names
*
.subckt 54L10  A B C Y
+	optional: DPWR=$G_DPWR DGND=$G_DGND
+	params: MNTYMXDLY=0 IO_LEVEL=0
U1 nand(3) DPWR DGND
+	A B C   Y 
+	D_L10 IO_L MNTYMXDLY={MNTYMXDLY} IO_LEVEL={IO_LEVEL} 
.ends
*
.model D_L10 ugate (
+	tplhty=35ns	tplhmx=60ns
+	tphlty=31ns	tphlmx=60ns
+	)
*$
*---------
* 54L20  Dual 4-input Positive-Nand Gates
*
* The TTL Data Book, Vol 2, 1985, TI
* tdn	06/26/89	Update interface and model names
*
.subckt 54L20  A B C D Y
+	optional: DPWR=$G_DPWR DGND=$G_DGND
+	params: MNTYMXDLY=0 IO_LEVEL=0
U1 nand(4) DPWR DGND
+	A B C D   Y 
+	D_L20 IO_L MNTYMXDLY={MNTYMXDLY} IO_LEVEL={IO_LEVEL} 
.ends
*
.model D_L20 ugate (
+	tplhty=35ns	tplhmx=60ns
+	tphlty=31ns	tphlmx=60ns
+	)
*$
*---------
* 54L30  8-input Positive-Nand Gates
*
* The TTL Data Book, Vol 2, 1985, TI
* tdn	06/26/89	Update interface and model names
*
.subckt 54L30  A B C D E F G H Y
+	optional: DPWR=$G_DPWR DGND=$G_DGND
+	params: MNTYMXDLY=0 IO_LEVEL=0
U1 nand(8) DPWR DGND
+	A B C D E F G H   Y 
+	D_L30 IO_L MNTYMXDLY={MNTYMXDLY} IO_LEVEL={IO_LEVEL} 
.ends
*
.model D_L30 ugate (
+	tplhty=35ns	tplhmx=60ns
+	tphlty=70ns	tphlmx=100ns
+	)
*$
*--------
* 54L42  DECODER BCD-DECIMAL 4-10 LINE
*
* THE TTL DATA BOOK, VOLUME 2, STANDARD, S, LS, TTL; 1985, TI
* JLS   7-30-92   REMODELED USING LOGICEXP, PINDLY, AND CONSTRAINT DEVICES
*
.SUBCKT 54L42   A_I B_I C_I D_I
+ Y0_O Y1_O Y2_O Y3_O Y4_O Y5_O Y6_O Y7_O Y8_O Y9_O
+ OPTIONAL: DPWR=$G_DPWR DGND=$G_DGND
+ PARAMS: MNTYMXDLY=0 IO_LEVEL=0
*
UL42LOG LOGICEXP (4,14) DPWR DGND
+ A_I B_I C_I D_I
+ A   B   C   D
+ Y0 Y1 Y2 Y3 Y4 Y5 Y6 Y7 Y8 Y9
+ D0_GATE IO_L
+ IO_LEVEL={IO_LEVEL}
+
+ LOGIC:
+   A    = { A_I }
+   B    = { B_I }
+   C    = { C_I }
+   D    = { D_I }
+   ABAR = { ~A }
+   BBAR = { ~B }
+   CBAR = { ~C }
+   DBAR = { ~D }
+   Y0   = { ~(DBAR & CBAR & BBAR & ABAR ) }
+   Y1   = { ~(DBAR & CBAR & BBAR & A    ) }
+   Y2   = { ~(DBAR & CBAR & B    & ABAR ) }
+   Y3   = { ~(DBAR & CBAR & B    & A    ) }
+   Y4   = { ~(DBAR & C    & BBAR & ABAR ) }
+   Y5   = { ~(DBAR & C    & BBAR & A    ) }
+   Y6   = { ~(DBAR & C    & B    & ABAR ) }
+   Y7   = { ~(DBAR & C    & B    & A    ) }
+   Y8   = { ~(D    & CBAR & BBAR & ABAR ) }
+   Y9   = { ~(D    & CBAR & BBAR & A    ) }
*
UL42DLY PINDLY (10,0,4) DPWR DGND
+ Y0 Y1 Y2 Y3 Y4 Y5 Y6 Y7 Y8 Y9
+ A B C D
+ Y0_O Y1_O Y2_O Y3_O Y4_O Y5_O Y6_O Y7_O Y8_O Y9_O
+ IO_L
+ MNTYMXDLY={MNTYMXDLY} IO_LEVEL={IO_LEVEL}
+
+ BOOLEAN:
+   ADDRA = { CHANGED(A,0) }
+   ADDRB = { CHANGED(B,0) }
+   ADDRC = { CHANGED(C,0) }
+   ADDRD = { CHANGED(D,0) }
+
+ PINDLY:
+   Y0_O = {
+     CASE (
+               TRN_HL, DELAY(10NS,14NS,25NS),
+               TRN_LH, DELAY(10NS,10NS,25NS),
+       DELAY(-1,14NS,25NS)
+       )
+     }
+   Y1_O = {
+     CASE (
+       ADDRA & TRN_HL, DELAY(  -1,46NS,70NS),
+       ADDRA & TRN_LH, DELAY(  -1,52NS,70NS),
+               TRN_HL, DELAY(10NS,44NS,60NS),
+               TRN_LH, DELAY(10NS,34NS,50NS),
+       DELAY(-1,52NS,70NS)
+       )
+     }
+   Y2_O = {
+     CASE (
+       ADDRB & TRN_HL, DELAY(  -1,46NS,70NS),
+       ADDRB & TRN_LH, DELAY(  -1,52NS,70NS),
+               TRN_HL, DELAY(10NS,44NS,60NS),
+               TRN_LH, DELAY(10NS,34NS,50NS),
+       DELAY(-1,52NS,70NS)
+       )
+     }
+   Y3_O = {
+     CASE (
+       (ADDRA | ADDRB) & TRN_HL, DELAY(  -1,46NS,70NS),
+       (ADDRA | ADDRB) & TRN_LH, DELAY(  -1,52NS,70NS),
+               TRN_HL, DELAY(10NS,44NS,60NS),
+               TRN_LH, DELAY(10NS,34NS,50NS),
+       DELAY(-1,52NS,70NS)
+       )
+     }
+   Y4_O = {
+     CASE (
+       ADDRC & TRN_HL, DELAY(  -1,46NS,70NS),
+       ADDRC & TRN_LH, DELAY(  -1,52NS,70NS),
+               TRN_HL, DELAY(10NS,44NS,60NS),
+               TRN_LH, DELAY(10NS,34NS,50NS),
+       DELAY(-1,52NS,70NS)
+       )
+     }
+   Y5_O = {
+     CASE (
+       (ADDRA | ADDRC) & TRN_HL, DELAY(  -1,46NS,70NS),
+       (ADDRA | ADDRC) & TRN_LH, DELAY(  -1,52NS,70NS),
+               TRN_HL, DELAY(10NS,44NS,60NS),
+               TRN_LH, DELAY(10NS,34NS,50NS),
+       DELAY(-1,52NS,70NS)
+       )
+     }
+   Y6_O = {
+     CASE (
+       (ADDRB | ADDRC) & TRN_HL, DELAY(  -1,46NS,70NS),
+       (ADDRB | ADDRC) & TRN_LH, DELAY(  -1,52NS,70NS),
+               TRN_HL, DELAY(10NS,44NS,60NS),
+               TRN_LH, DELAY(10NS,34NS,50NS),
+       DELAY(-1,52NS,70NS)
+       )
+     }
+   Y7_O = {
+     CASE (
+       (ADDRA | ADDRB | ADDRC) & TRN_HL, DELAY(  -1,46NS,70NS),
+       (ADDRA | ADDRB | ADDRC) & TRN_LH, DELAY(  -1,52NS,70NS),
+               TRN_HL, DELAY(10NS,44NS,60NS),
+               TRN_LH, DELAY(10NS,34NS,50NS),
+       DELAY(-1,52NS,70NS)
+       )
+     }
+   Y8_O = {
+     CASE (
+       ADDRD & TRN_HL, DELAY(  -1,46NS,70NS),
+       ADDRD & TRN_LH, DELAY(  -1,52NS,70NS),
+               TRN_HL, DELAY(10NS,44NS,60NS),
+               TRN_LH, DELAY(10NS,34NS,50NS),
+       DELAY(-1,52NS,70NS)
+       )
+     }
+   Y9_O = {
+     CASE (
+       (ADDRA | ADDRD) & TRN_HL, DELAY(  -1,46NS,70NS),
+       (ADDRA | ADDRD) & TRN_LH, DELAY(  -1,52NS,70NS),
+               TRN_HL, DELAY(10NS,44NS,60NS),
+               TRN_LH, DELAY(10NS,34NS,50NS),
+       DELAY(-1,52NS,70NS)
+       )
+     }
*
.ENDS
*
*$
*--------
* 54L43  DECODER EXCESS-3-DECIMAL 4-10 LINE
*
* THE TTL DATA BOOK, VOLUME 2, STANDARD, S, LS, TTL; TI, 1985
* JLS   7-30-92   REMODELED USING LOGICEXP, PINDLY, AND CONSTRAINT DEVICES
*
.SUBCKT 54L43   A_I B_I C_I D_I
+ Y0_O Y1_O Y2_O Y3_O Y4_O Y5_O Y6_O Y7_O Y8_O Y9_O
+ OPTIONAL: DPWR=$G_DPWR DGND=$G_DGND
+ PARAMS: MNTYMXDLY=0 IO_LEVEL=0
*
UL43LOG LOGICEXP (4,14) DPWR DGND
+ A_I B_I C_I D_I
+ A   B   C   D
+ Y0 Y1 Y2 Y3 Y4 Y5 Y6 Y7 Y8 Y9
+ D0_GATE IO_L
+ IO_LEVEL={IO_LEVEL}
+
+ LOGIC:
+   A    = { A_I }
+   B    = { B_I }
+   C    = { C_I }
+   D    = { D_I }
+   ABAR = { ~A }
+   BBAR = { ~B }
+   CBAR = { ~C }
+   DBAR = { ~D }
+   Y0   = { ~(DBAR & CBAR & B    & A    ) }
+   Y1   = { ~(DBAR & C    & BBAR & ABAR ) }
+   Y2   = { ~(DBAR & C    & BBAR & A    ) }
+   Y3   = { ~(DBAR & C    & B    & ABAR ) }
+   Y4   = { ~(DBAR & C    & B    & A    ) }
+   Y5   = { ~(D    & CBAR & BBAR & ABAR ) }
+   Y6   = { ~(D    & CBAR & BBAR & A    ) }
+   Y7   = { ~(D    & CBAR & B    & ABAR ) }
+   Y8   = { ~(D    & CBAR & B    & A    ) }
+   Y9   = { ~(D    & C    & BBAR & ABAR ) }
*
UL43DLY PINDLY (10,0,4) DPWR DGND
+ Y0 Y1 Y2 Y3 Y4 Y5 Y6 Y7 Y8 Y9
+ A B C D
+ Y0_O Y1_O Y2_O Y3_O Y4_O Y5_O Y6_O Y7_O Y8_O Y9_O
+ IO_L
+ MNTYMXDLY={MNTYMXDLY} IO_LEVEL={IO_LEVEL}
+
+ BOOLEAN:
+   ADDRA = { CHANGED(A,0) }
+   ADDRB = { CHANGED(B,0) }
+   ADDRC = { CHANGED(C,0) }
+   ADDRD = { CHANGED(D,0) }
+
+ PINDLY:
+   Y0_O = {
+     CASE (
+       (ADDRA | ADDRB) & TRN_HL, DELAY(  -1,46NS,70NS),
+       (ADDRA | ADDRB) & TRN_LH, DELAY(  -1,52NS,70NS),
+               TRN_HL, DELAY(10NS,44NS,60NS),
+               TRN_LH, DELAY(10NS,34NS,50NS),
+       DELAY(-1,52NS,70NS)
+       )
+     }
+   Y1_O = {
+     CASE (
+       ADDRC & TRN_HL, DELAY(  -1,46NS,70NS),
+       ADDRC & TRN_LH, DELAY(  -1,52NS,70NS),
+               TRN_HL, DELAY(10NS,44NS,60NS),
+               TRN_LH, DELAY(10NS,34NS,50NS),
+       DELAY(-1,52NS,70NS)
+       )
+     }
+   Y2_O = {
+     CASE (
+       (ADDRA | ADDRC) & TRN_HL, DELAY(  -1,46NS,70NS),
+       (ADDRA | ADDRC) & TRN_LH, DELAY(  -1,52NS,70NS),
+               TRN_HL, DELAY(10NS,44NS,60NS),
+               TRN_LH, DELAY(10NS,34NS,50NS),
+       DELAY(-1,52NS,70NS)
+       )
+     }
+   Y3_O = {
+     CASE (
+       (ADDRB | ADDRC) & TRN_HL, DELAY(  -1,46NS,70NS),
+       (ADDRB | ADDRC) & TRN_LH, DELAY(  -1,52NS,70NS),
+               TRN_HL, DELAY(10NS,44NS,60NS),
+               TRN_LH, DELAY(10NS,34NS,50NS),
+       DELAY(-1,52NS,70NS)
+       )
+     }
+   Y4_O = {
+     CASE (
+       (ADDRA | ADDRB | ADDRC) & TRN_HL, DELAY(  -1,46NS,70NS),
+       (ADDRA | ADDRB | ADDRC) & TRN_LH, DELAY(  -1,52NS,70NS),
+               TRN_HL, DELAY(10NS,44NS,60NS),
+               TRN_LH, DELAY(10NS,34NS,50NS),
+       DELAY(-1,52NS,70NS)
+       )
+     }
+   Y5_O = {
+     CASE (
+       ADDRD & TRN_HL, DELAY(  -1,46NS,70NS),
+       ADDRD & TRN_LH, DELAY(  -1,52NS,70NS),
+               TRN_HL, DELAY(10NS,44NS,60NS),
+               TRN_LH, DELAY(10NS,34NS,50NS),
+       DELAY(-1,52NS,70NS)
+       )
+     }
+   Y6_O = {
+     CASE (
+       (ADDRA | ADDRD) & TRN_HL, DELAY(  -1,46NS,70NS),
+       (ADDRA | ADDRD) & TRN_LH, DELAY(  -1,52NS,70NS),
+               TRN_HL, DELAY(10NS,44NS,60NS),
+               TRN_LH, DELAY(10NS,34NS,50NS),
+       DELAY(-1,52NS,70NS)
+       )
+     }
+   Y7_O = {
+     CASE (
+       (ADDRB | ADDRD) & TRN_HL, DELAY(  -1,46NS,70NS),
+       (ADDRB | ADDRD) & TRN_LH, DELAY(  -1,52NS,70NS),
+               TRN_HL, DELAY(10NS,44NS,60NS),
+               TRN_LH, DELAY(10NS,34NS,50NS),
+       DELAY(-1,52NS,70NS)
+       )
+     }
+   Y8_O = {
+     CASE (
+       (ADDRA | ADDRB | ADDRD) & TRN_HL, DELAY(  -1,46NS,70NS),
+       (ADDRA | ADDRB | ADDRD) & TRN_LH, DELAY(  -1,52NS,70NS),
+               TRN_HL, DELAY(10NS,44NS,60NS),
+               TRN_LH, DELAY(10NS,34NS,50NS),
+       DELAY(-1,52NS,70NS)
+       )
+     }
+   Y9_O = {
+     CASE (
+       (ADDRC | ADDRD) & TRN_HL, DELAY(  -1,46NS,70NS),
+       (ADDRC | ADDRD) & TRN_LH, DELAY(  -1,52NS,70NS),
+               TRN_HL, DELAY(10NS,44NS,60NS),
+               TRN_LH, DELAY(10NS,34NS,50NS),
+       DELAY(-1,52NS,70NS)
+       )
+     }
*
.ENDS
*
*$
*---------
* 54L44  DECODER GRAY-DECIMAL 4-10 LINE
*
* THE TTL DATA BOOK, VOLUME 2, STANDARD, S, LS, TTL; 1985, TI
* JLS   7-30-92   REMODELED USING LOGICEXP, PINDLY, AND CONSTRAINT DEVICES
*
.SUBCKT 54L44   A_I B_I C_I D_I
+ Y0_O Y1_O Y2_O Y3_O Y4_O Y5_O Y6_O Y7_O Y8_O Y9_O
+ OPTIONAL: DPWR=$G_DPWR DGND=$G_DGND
+ PARAMS: MNTYMXDLY=0 IO_LEVEL=0
*
UL44LOG LOGICEXP (4,14) DPWR DGND
+ A_I B_I C_I D_I
+ A   B   C   D
+ Y0 Y1 Y2 Y3 Y4 Y5 Y6 Y7 Y8 Y9
+ D0_GATE IO_L
+ IO_LEVEL={IO_LEVEL}
+
+ LOGIC:
+   A    = { A_I }
+   B    = { B_I }
+   C    = { C_I }
+   D    = { D_I }
+   ABAR = { ~A }
+   BBAR = { ~B }
+   CBAR = { ~C }
+   DBAR = { ~D }
+   Y0   = { ~(DBAR & CBAR & B    & ABAR ) }
+   Y1   = { ~(DBAR & C    & B    & ABAR ) }
+   Y2   = { ~(DBAR & C    & B    & A    ) }
+   Y3   = { ~(DBAR & C    & BBAR & A    ) }
+   Y4   = { ~(DBAR & C    & BBAR & ABAR ) }
+   Y5   = { ~(D    & C    & BBAR & ABAR ) }
+   Y6   = { ~(D    & C    & BBAR & A    ) }
+   Y7   = { ~(D    & C    & B    & A    ) }
+   Y8   = { ~(D    & C    & B    & ABAR ) }
+   Y9   = { ~(D    & CBAR & B    & ABAR ) }
*
UL44DLY PINDLY (10,0,4) DPWR DGND
+ Y0 Y1 Y2 Y3 Y4 Y5 Y6 Y7 Y8 Y9
+ A B C D
+ Y0_O Y1_O Y2_O Y3_O Y4_O Y5_O Y6_O Y7_O Y8_O Y9_O
+ IO_L
+ MNTYMXDLY={MNTYMXDLY} IO_LEVEL={IO_LEVEL}
+
+ BOOLEAN:
+   ADDRA = { CHANGED(A,0) }
+   ADDRB = { CHANGED(B,0) }
+   ADDRC = { CHANGED(C,0) }
+   ADDRD = { CHANGED(D,0) }
+
+ PINDLY:
+   Y0_O = {
+     CASE (
+       ADDRB & TRN_HL, DELAY(  -1,46NS,70NS),
+       ADDRB & TRN_LH, DELAY(  -1,52NS,70NS),
+               TRN_HL, DELAY(10NS,44NS,60NS),
+               TRN_LH, DELAY(10NS,34NS,50NS),
+       DELAY(-1,52NS,70NS)
+       )
+     }
+   Y1_O = {
+     CASE (
+       (ADDRB | ADDRC) & TRN_HL, DELAY(  -1,46NS,70NS),
+       (ADDRB | ADDRC) & TRN_LH, DELAY(  -1,52NS,70NS),
+               TRN_HL, DELAY(10NS,44NS,60NS),
+               TRN_LH, DELAY(10NS,34NS,50NS),
+       DELAY(-1,52NS,70NS)
+       )
+     }
+   Y2_O = {
+     CASE (
+       (ADDRA | ADDRB | ADDRC) & TRN_HL, DELAY(  -1,46NS,70NS),
+       (ADDRA | ADDRB | ADDRC) & TRN_LH, DELAY(  -1,52NS,70NS),
+               TRN_HL, DELAY(10NS,44NS,60NS),
+               TRN_LH, DELAY(10NS,34NS,50NS),
+       DELAY(-1,52NS,70NS)
+       )
+     }
+   Y3_O = {
+     CASE (
+       (ADDRA | ADDRC) & TRN_HL, DELAY(  -1,46NS,70NS),
+       (ADDRA | ADDRC) & TRN_LH, DELAY(  -1,52NS,70NS),
+               TRN_HL, DELAY(10NS,44NS,60NS),
+               TRN_LH, DELAY(10NS,34NS,50NS),
+       DELAY(-1,52NS,70NS)
+       )
+     }
+   Y4_O = {
+     CASE (
+       ADDRC & TRN_HL, DELAY(  -1,46NS,70NS),
+       ADDRC & TRN_LH, DELAY(  -1,52NS,70NS),
+               TRN_HL, DELAY(10NS,44NS,60NS),
+               TRN_LH, DELAY(10NS,34NS,50NS),
+       DELAY(-1,52NS,70NS)
+       )
+     }
+   Y5_O = {
+     CASE (
+       (ADDRC | ADDRD) & TRN_HL, DELAY(  -1,46NS,70NS),
+       (ADDRC | ADDRD) & TRN_LH, DELAY(  -1,52NS,70NS),
+               TRN_HL, DELAY(10NS,44NS,60NS),
+               TRN_LH, DELAY(10NS,34NS,50NS),
+       DELAY(-1,52NS,70NS)
+       )
+     }
+   Y6_O = {
+     CASE (
+       (ADDRA | ADDRC | ADDRD) & TRN_HL, DELAY(  -1,46NS,70NS),
+       (ADDRA | ADDRC | ADDRD) & TRN_LH, DELAY(  -1,52NS,70NS),
+               TRN_HL, DELAY(10NS,44NS,60NS),
+               TRN_LH, DELAY(10NS,34NS,50NS),
+       DELAY(-1,52NS,70NS)
+       )
+     }
+   Y7_O = {
+     CASE (
+       (ADDRA | ADDRB | ADDRC | ADDRD) & TRN_HL, DELAY(  -1,46NS,70NS),
+       (ADDRA | ADDRB | ADDRC | ADDRD) & TRN_LH, DELAY(  -1,52NS,70NS),
+               TRN_HL, DELAY(10NS,44NS,60NS),
+               TRN_LH, DELAY(10NS,34NS,50NS),
+       DELAY(-1,52NS,70NS)
+       )
+     }
+   Y8_O = {
+     CASE (
+       (ADDRB | ADDRC | ADDRD) & TRN_HL, DELAY(  -1,46NS,70NS),
+       (ADDRB | ADDRC | ADDRD) & TRN_LH, DELAY(  -1,52NS,70NS),
+               TRN_HL, DELAY(10NS,44NS,60NS),
+               TRN_LH, DELAY(10NS,34NS,50NS),
+       DELAY(-1,52NS,70NS)
+       )
+     }
+   Y9_O = {
+     CASE (
+       (ADDRB | ADDRD) & TRN_HL, DELAY(  -1,46NS,70NS),
+       (ADDRB | ADDRD) & TRN_LH, DELAY(  -1,52NS,70NS),
+               TRN_HL, DELAY(10NS,44NS,60NS),
+               TRN_LH, DELAY(10NS,34NS,50NS),
+       DELAY(-1,52NS,70NS)
+       )
+     }
*
.ENDS
*
*$
*---------
* 54L46  DECODER/DRIVER BCD-7 SEGMENT WITH OPEN COLLECTOR OUTPUTS
*
* THE TTL DATA BOOK, VOLUME 2, STANDARD, S, LS, TTL; 1985, TI
* JLS   8-26-92   REMODELED USING LOGICEXP, PINDLY, AND CONSTRAINT DEVICES
*    
.SUBCKT 54L46   INA_I INB_I INC_I IND_I RBIBAR_I LTBAR_I BIBAR/RBOBAR_B
+ OUTA_O OUTB_O OUTC_O OUTD_O OUTE_O OUTF_O OUTG_O
+ OPTIONAL: DPWR=$G_DPWR DGND=$G_DGND
+ PARAMS: MNTYMXDLY=0 IO_LEVEL=0
*
X1   INA_I INB_I INC_I IND_I RBIBAR_I LTBAR_I BIBAR/RBOBAR_B
+ OUTA_O OUTB_O OUTC_O OUTD_O OUTE_O OUTF_O OUTG_O   DPWR DGND   54L47
+ PARAMS: MNTYMXDLY={MNTYMXDLY} IO_LEVEL={IO_LEVEL}
*
.ENDS
*
*$
*---------
* 54L47  DECODER/DRIVER BCD-7 SEGMENT WITH OPEN COLLECTOR OUTPUTS
*
* THE TTL DATA BOOK, VOLUME 2, STANDARD, S, LS, TTL; 1985, TI
* JLS   8-26-92   REMODELED USING LOGICEXP, PINDLY, AND CONSTRAINT DEVICES
*    
.SUBCKT 54L47   INA_I INB_I INC_I IND_I RBIBAR_I LTBAR_I BIBAR/RBOBAR_B
+ OUTA_O OUTB_O OUTC_O OUTD_O OUTE_O OUTF_O OUTG_O
+ OPTIONAL: DPWR=$G_DPWR DGND=$G_DGND
+ PARAMS: MNTYMXDLY=0 IO_LEVEL=0
*
U1 OR(6) DPWR DGND
+ LT RBIBAR INA INB INC IND
+ BIBAR/RBOBAR_B
+ D0_GATE IO_L
+ IO_LEVEL={IO_LEVEL}
*
UL47LOG LOGICEXP (7,13) DPWR DGND
+ INA_I INB_I INC_I IND_I RBIBAR_I LTBAR_I BIBAR/RBOBAR_B
+ INA   INB   INC   IND   RBIBAR   LT
+ OUTA OUTB OUTC OUTD OUTE OUTF OUTG
+ D0_GATE IO_L
+ IO_LEVEL={IO_LEVEL}
+
+ LOGIC:
+   INA    = { INA_I }
+   INB    = { INB_I }
+   INC    = { INC_I }
+   IND    = { IND_I }
+   RBIBAR = { RBIBAR_I }
+   LTBAR  = { LTBAR_I }
+   BIBAR/RBOBAR  = { BIBAR/RBOBAR_B }
+
+   LT     = { ~LTBAR }
+   ALT    = { ~(INA & LTBAR) }
+   BLT    = { ~(INB & LTBAR) }
+   CLT    = { ~(INC & LTBAR) }
+   DLT    = { ~IND }
+   ABI    = { ~(ALT & BIBAR/RBOBAR) }
+   BBI    = { ~(BLT & BIBAR/RBOBAR) }
+   CBI    = { ~(CLT & BIBAR/RBOBAR) }
+   DBI    = { ~(DLT & BIBAR/RBOBAR) }
+
+   OUTA   = { (BBI & DBI) | (ALT & CBI) | (ABI & BLT & CLT & DLT) }
+   OUTB   = { (BBI & DBI) | (ABI & BLT & CBI) | (ALT & BBI & CBI) }
+   OUTC   = { (CBI & DBI) | (ALT & BBI & CLT) }
+   OUTD   = { (ABI & BLT & CLT) | (ALT & BLT & CBI) | (ABI & BBI & CBI) }
+   OUTE   = {  ABI | (BLT & CBI) }
+   OUTF   = { (ABI & BBI) | (BBI & CLT) | (ABI & CLT & DLT) }
+   OUTG   = { (ABI & BBI & CBI) | (BLT & CLT & DLT & LTBAR) }
*
UL47DLY_OC PINDLY (7,0,0) DPWR DGND
+ OUTA OUTB OUTC OUTD OUTE OUTF OUTG
+
+ OUTA_O OUTB_O OUTC_O OUTD_O OUTE_O OUTF_O OUTG_O
+ IO_L_OC
+ MNTYMXDLY={MNTYMXDLY} IO_LEVEL={IO_LEVEL}
+
+ PINDLY:
+   OUTA_O OUTB_O OUTC_O OUTD_O OUTE_O OUTF_O OUTG_O =
+     { DELAY(-1,-1,200NS) }
*
.ENDS
*
*$
*---------
* 74L51  And-Or-Invert Gates
*
* The TTL Data Book, Vol 2, 1985, TI
* tdn	06/27/89	Update interface and model names
*
.subckt 74L51  1A 1B 1C 1D 1E 1F 1Y 2A 2B 2C 2D 2Y
+	optional: DPWR=$G_DPWR DGND=$G_DGND
+	params: MNTYMXDLY=0 IO_LEVEL=0
U1 aoi(3,2) DPWR DGND
+	1A 1B 1C 1D 1E 1F   1Y 
+	D_L51 IO_L MNTYMXDLY={MNTYMXDLY} IO_LEVEL={IO_LEVEL} 
U2 aoi(2,2) DPWR DGND
+	2A 2B 2C 2D   2Y 
+	D_L51 IO_L MNTYMXDLY={MNTYMXDLY} IO_LEVEL={IO_LEVEL} 
.ends
*
.model D_L51 ugate (
+	tplhty=50ns	tplhmx=90ns
+	tphlty=35ns	tphlmx=60ns
+	)
*$
*---------
* 74L54  4-wide And-Or-Invert Gates
*
* The TTL Data Book, Vol 2, 1985, TI
* tdn	06/27/89	Update interface and model names
*
.subckt 74L54  A B C D E F G H I J Y
+	optional: DPWR=$G_DPWR DGND=$G_DGND
+	params: MNTYMXDLY=0 IO_LEVEL=0
U1 aoi(3,4) DPWR DGND
+	A	B	$D_HI
+	C	D	E
+	F	G	H
+	I	J	$D_HI
+	Y
+	D_L54 IO_L MNTYMXDLY={MNTYMXDLY} IO_LEVEL={IO_LEVEL} 
.ends
*
.model D_L54 ugate (
+	tplhty=50ns	tplhmx=90ns
+	tphlty=35ns	tphlmx=60ns
+	)
*$
*-------------------------------------------------------------------------
* 74L55  2-wide 4-input And-Or-Invert Gates
*
* The TTL Data Book, Vol 2, 1985, TI
* tdn	06/27/89	Update interface and model names
*
.subckt 74L55  A B C D E F G H Y
+	optional: DPWR=$G_DPWR DGND=$G_DGND
+	params: MNTYMXDLY=0 IO_LEVEL=0
U1 aoi(4,2) DPWR DGND
+	A B C D E F G H   Y 
+	D_L55 IO_L MNTYMXDLY={MNTYMXDLY} IO_LEVEL={IO_LEVEL} 
.ends
*
.model D_L55 ugate (
+	tplhty=50ns	tplhmx=90ns
+	tphlty=35ns	tphlmx=60ns
+	)
*$
*---------
* 54L71  And Gated J-K Master-Slave Flip-Flops with Preset and Clear
*
* The TTL Data Book, Vol 2, 1985, TI
* tdn	08/11/89	Update interface and model names
*
.subckt 54L71  PREBAR CLRBAR CLK S1 S2 S3 R1 R2 R3 Q QBAR
+	optional: DPWR=$G_DPWR DGND=$G_DGND
+	params: MNTYMXDLY=0 IO_LEVEL=0
U1 bufa(3) DPWR DGND
+	PREBAR CLRBAR CLK   PREB CLRB CLK_BUF 
+	D0_GATE IO_L IO_LEVEL={IO_LEVEL} 
U2 anda(3,2) DPWR DGND
+	S1 S2 S3 R1 R2 R3   S R 
+	D0_GATE IO_L IO_LEVEL={IO_LEVEL} 
U3 inva(3) DPWR DGND
+	CLK_BUF PREB CLRB   CLKB PRE CLR 
+	D0_GATE IO_L 
UF1 srff(1) DPWR DGND
+	PREB CLRB CLK_BUF   S R   Y YB 
+	D_L71_1 IO_L MNTYMXDLY={MNTYMXDLY} 
UF2 srff(1) DPWR DGND
+	PREB CLRB CLKB   Y YB   Q1 QB1 
+	D_L71_2 IO_L MNTYMXDLY={MNTYMXDLY} 
X1  Q1 PREB PRE CLRB CLR CLKB CLK_BUF Q  DPWR DGND  L71SUB
+	params: MNTYMXDLY={MNTYMXDLY} IO_LEVEL={IO_LEVEL}
X2  QB1 PREB PRE CLRB CLR CLKB CLK_BUF QBAR  DPWR DGND  L71SUB
+	params: MNTYMXDLY={MNTYMXDLY} IO_LEVEL={IO_LEVEL}
.ends
*
.subckt L71SUB  IN P PB C CB CLKB CLK OUT DPWR DGND
+	params: MNTYMXDLY=0 IO_LEVEL=0
U0 or(2) DPWR DGND
+	P C   PC 
+	D0_GATE IO_L 
U1 anda(3,2) DPWR DGND
+	PB CB IN PC CLK IN   OUT1 OUT2 
+	D0_GATE IO_L 
U2 and(3) DPWR DGND
+	PC CLKB IN   OUT3 
+	D_L71_3 IO_L MNTYMXDLY={MNTYMXDLY} 
U3 or(3) DPWR DGND
+	OUT1 OUT2 OUT3   OUT 
+	D_L71_4 IO_L MNTYMXDLY={MNTYMXDLY} IO_LEVEL={IO_LEVEL} 
.ends
*
.model D_L71_1 ugff (
+	twghmn=200ns	twpclmn=100ns
+	)
.model D_L71_2 ugff (
+	twghmn=200ns	twpclmn=100ns
+	)
.model D_L71_3 ugate (
+	tphlty=1ps	tphlmx=50ns
+	)
.model D_L71_4 ugate (
+	tplhmn=10ns	tplhty=35ns
+	tplhmx=75ns	tphlmn=10ns
+	tphlty=60ns	tphlmx=150ns
+	)
*$
*---------
* 54L72  And Gated J-K Master-Slave Flip-Flops with Preset and Clear
*
* The TTL Data Book, Vol 2, 1985, TI
* tdn	08/11/89	Update interface and model names
*
.subckt 54L72  PREBAR CLRBAR CLK J1 J2 J3 K1 K2 K3 Q QBAR
+	optional: DPWR=$G_DPWR DGND=$G_DGND
+	params: MNTYMXDLY=0 IO_LEVEL=0
U1 bufa(2) DPWR DGND
+	PREBAR CLRBAR   PREB CLRB 
+	D0_GATE IO_L IO_LEVEL={IO_LEVEL} 
U2 anda(3,2) DPWR DGND
+	J1 J2 J3 K1 K2 K3   J K 
+	D0_GATE IO_L IO_LEVEL={IO_LEVEL} 
U3 inva(3) DPWR DGND
+	CLK_BUF J K   CLKB JB KB 
+	D0_GATE IO_L 
U4 buf DPWR DGND
+	CLK   CLK_BUF 
+	D_L72_3 IO_L MNTYMXDLY={MNTYMXDLY} IO_LEVEL={IO_LEVEL} 
UF1 srff(1) DPWR DGND
+	PREB CLRB CLK_BUF   W1 W2   Y YB 
+	D_L72_1 IO_L MNTYMXDLY={MNTYMXDLY} 
UF2 srff(1) DPWR DGND
+	PREB CLRB CLKB   Y YB   Q1 QB1 
+	D_L72_2 IO_L MNTYMXDLY={MNTYMXDLY} 
U5 ao(3,2) DPWR DGND
+	J K QBD J KB $D_HI   W1 
+	D_L72_4 IO_H 
U6 ao(3,2) DPWR DGND
+	J K QD JB K $D_HI   W2 
+	D_L72_4 IO_H 
U7 bufa(4) DPWR DGND
+	Q1 Q1 QB1 QB1   Q QD QBAR QBD 
+	D_L72_4 IO_H MNTYMXDLY={MNTYMXDLY} IO_LEVEL={IO_LEVEL} 
.ends
*
.model D_L72_1 ugff (
+	twghmn=200ns	twpclmn=100ns
+	)
.model D_L72_2 ugff (
+	twghmn=200ns	twpclmn=100ns
+	tppcqhlty=40ns	tppcqhlmx=180ns
+	tppcqlhty=15ns	tppcqlhmx=55ns
+	tpgqlhty=15ns	tpgqlhmx=55ns
+	tpgqhlty=40ns	tpgqhlmx=130ns
+	)
.model D_L72_3 ugate (
+	tplhty=20ns	tplhmx=20ns
+	)
.model D_L72_4 ugate (
+	tplhmn=10ns	tplhty=20ns
+	tplhmx=20ns	tphlmn=10ns
+	tphlty=20ns	tphlmx=20ns
+	)
*$
*---------
* 74L74  Dual D-Type Positive-Edge-Triggered Flip-Flops w/ Preset & Clear
*
* The TTL Data Book, Vol 2, 1985, TI
* tdn	06/28/89	Update interface and model names
*
.subckt 74L74  1CLRBAR 1D 1CLK 1PREBAR 1Q 1QBAR
+	optional: DPWR=$G_DPWR DGND=$G_DGND
+	params: MNTYMXDLY=0 IO_LEVEL=0
UFF1 dff(1) DPWR DGND
+	1PREBAR 1CLRBAR 1CLK   1D   1Q 1QBAR 
+	D_L74 IO_L MNTYMXDLY={MNTYMXDLY} IO_LEVEL={IO_LEVEL} 
.ends
*
.model D_L74 ueff (
+	twpclmn=100ns	twclklmn=200ns
+	twclkhmn=200ns	tsudclkmn=50ns
+	thdclkmn=15ns	tppcqlhty=50ns
+	tppcqlhmx=75ns	tppcqhlty=80ns
+	tppcqhlmx=150ns	tpclkqlhmn=15ns
+	tpclkqlhty=65ns	tpclkqlhmx=100ns
+	tpclkqhlmn=15ns	tpclkqhlty=65ns
+	tpclkqhlmx=150ns
+	)
*$
*---------
* 74L75  4-bit bistable latches (dual 2-bit common clock)
*
* The TTL Data Book, Vol 2, 1985, TI
* tdn	06/28/89	Update interface and model names
*
.subckt 74L75  1D 2D C 1Q 1QBAR 2Q 2QBAR
+	optional: DPWR=$G_DPWR DGND=$G_DGND
+	params: MNTYMXDLY=0 IO_LEVEL=0
UIBUF bufa(3) DPWR DGND
+	1D 2D C   1D_BUF 2D_BUF C_BUF 
+	D0_GATE IO_L IO_LEVEL={IO_LEVEL} 
U12 dltch(2) DPWR DGND
+	$D_HI $D_HI C_BUF   1D_BUF 2D_BUF   1Q 2Q $D_NC $D_NC 
+	D_L75_1 IO_L MNTYMXDLY={MNTYMXDLY} IO_LEVEL={IO_LEVEL} 
U12B dltch(2) DPWR DGND
+	$D_HI $D_HI C_BUF   1D_BUF 2D_BUF   $D_NC $D_NC 1QBAR 2QBAR 
+	D_L75_2 IO_L MNTYMXDLY={MNTYMXDLY} IO_LEVEL={IO_LEVEL} 
.ends
*
.model D_L75_1 ugff (
+	twghmx=100ns	tsudgmx=40ns
+	thdgmx=10ns	tpgqlhty=32ns
+	tpgqlhmx=60ns	tpgqhlty=14ns
+	tpgqhlmx=30ns	tpdqlhty=32ns
+	tpdqlhmx=60ns	tpdqhlty=28ns
+	tpdqhlmx=50ns
+	)
.model D_L75_2 ugff (
+	twghmx=100ns	tsudgmx=40ns
+	thdgmx=10ns	tpgqlhty=32ns
+	tpgqlhmx=60ns	tpgqhlty=14ns
+	tpgqhlmx=30ns	tpdqlhty=48ns
+	tpdqlhmx=80ns	tpdqhlty=14ns
+	tpdqhlmx=30ns
+	)
*$
*---------
* 74L77  4-bit bistable latches 
*
* The TTL Data Book, Vol 2, 1985, TI
* tdn	06/28/89	Update interface and model names
*
.subckt 74L77  1D 2D C 1Q 2Q
+	optional: DPWR=$G_DPWR DGND=$G_DGND
+	params: MNTYMXDLY=0 IO_LEVEL=0
UIBUF buf DPWR DGND
+	C   C_BUF 
+	D0_GATE IO_L IO_LEVEL={IO_LEVEL} 
U1 dltch(2) DPWR DGND
+	$D_HI $D_HI C_BUF   1D 2D   1Q 2Q $D_NC $D_NC 
+	D_L77 IO_L MNTYMXDLY={MNTYMXDLY} IO_LEVEL={IO_LEVEL} 
.ends
*
.model D_L77 ugff (
+	twghmx=100ns	tsudgmx=40ns
+	thdgmx=10ns	tpgqlhty=32ns
+	tpgqlhmx=60ns	tpgqhlty=14ns
+	tpgqhlmx=30ns	tpdqlhty=32ns
+	tpdqlhmx=60ns	tpdqhlty=28ns
+	tpdqhlmx=50ns
+	)
*$
*---------
* 54L85 4-BIT MAGNITUDE COMPARATOR
*
* THE TTL DATA BOOK, VOL 2, STANDARD, S, LS, TTL, 1985, TI
* KN   8-20-92      REMODELED USING LOGICEXP, PINDLY, CONSTRAINT DEVICES
*
.SUBCKT 54L85 A3_I A2_I A1_I A0_I B3_I B2_I B1_I B0_I
+ AGBIN_I AEBIN_I ALBIN_I AGBOUT_O AEBOUT_O ALBOUT_O
+ OPTIONAL: DPWR=$G_DPWR DGND=$G_DGND
+ PARAMS: MNTYMXDLY=0 IO_LEVEL=0
*
U54L85LOG LOGICEXP(11,14) DPWR DGND
+ A3_I A2_I A1_I A0_I B3_I B2_I B1_I B0_I AGBIN_I AEBIN_I ALBIN_I
+ A3   A2   A1   A0   B3   B2   B1   B0   AGBIN   AEBIN   ALBIN
+ AGBOUT AEBOUT ALBOUT
+ D0_GATE
+ IO_L IO_LEVEL={IO_LEVEL}
+
+ LOGIC:
*   BUFFER:
+   A3     = { A3_I }
+   A2     = { A2_I }
+   A1     = { A1_I }
+   A0     = { A0_I }
+   B3     = { B3_I }
+   B2     = { B2_I }
+   B1     = { B1_I }
+   B0     = { B0_I }
+   AGBIN  = { AGBIN_I }
+   AEBIN  = { AEBIN_I }
+   ALBIN  = { ALBIN_I }
+
*   INTERMEDIATE TERMS:
+   A3/B3   = {  A3 & ~B3 }
+   /A3B3   = { ~A3 &  B3 }
+   A2/B2   = {  A2 & ~B2 }
+   /A2B2   = { ~A2 &  B2 }
+   A1/B1   = {  A1 & ~B1 }
+   /A1B1   = { ~A1 &  B1 }
+   A0/B0   = {  A0 & ~B0 }
+   /A0B0   = { ~A0 &  B0 }
+   C3      = { ~(A3/B3 | /A3B3) }
+   C2      = { ~(A2/B2 | /A2B2) }
+   C1      = { ~(A1/B1 | /A1B1) }
+   C0      = { ~(A0/B0 | /A0B0) }
+   C32     = { C3 &  C2 }
+   C31     = { C32 & C1 }
+   C30     = { C31 & C0 }
+
*   OUTPUT ASSIGNMENTS:
+   AGBOUT  = { A3/B3 | (C3 & A2/B2) | (C32 & A1/B1) | (C31 & A0/B0)
+                     | (C30 & AGBIN) }
+   AEBOUT  = { C30 & AEBIN }
+   ALBOUT  = { /A3B3 | (C3 & /A2B2) | (C32 & /A1B1) | (C31 & /A0B0)
+                     | (C30 & ALBIN) }
*
U54L85DLY PINDLY (3,0,11) DPWR DGND
+ AGBOUT AEBOUT ALBOUT
+ A3 A2 A1 A0 B3 B2 B1 B0 AGBIN AEBIN ALBIN
+ AGBOUT_O AEBOUT_O ALBOUT_O
+ IO_L MNTYMXDLY={MNTYMXDLY} IO_LEVEL={IO_LEVEL}
+
+ BOOLEAN:
+  DATA_CHANGE = { CHANGED(A3,0) | CHANGED(A2,0) | CHANGED(A1,0) | CHANGED(A0,0)
+              | CHANGED(B3,0) | CHANGED(B2,0) | CHANGED(B1,0) | CHANGED(B0,0) }
+  AGBIN_CHANGE = { CHANGED(AGBIN,0) | CHANGED(AEBIN,0) | CHANGED(ALBIN,0) }
+
+ PINDLY:
+   AGBOUT_O AEBOUT_O ALBOUT_O = {
+     CASE(
+       DATA_CHANGE & TRN_HL,   DELAY(-1,75NS,150NS),
+       DATA_CHANGE & TRN_LH,   DELAY(-1,90NS,150NS),
+       AGBIN_CHANGE & TRN_HL,  DELAY(-1,55NS,100NS),
+       AGBIN_CHANGE & TRN_LH,  DELAY(-1,75NS,150NS),
+                               DELAY(-1,91NS,151NS)  ;DEFAULT
+     )
+   }
*
.ENDS
*
*$
*---------
* 54L86  Quadruple 2-input Exclusive-Or Gates
*
* The TTL Data Book, Vol 2, 1985, TI
* tdn	06/29/89	Update interface and model names
*
.subckt 54L86  A B Y
+	optional: DPWR=$G_DPWR DGND=$G_DGND
+	params: MNTYMXDLY=0 IO_LEVEL=0
UIBUF bufa(2) DPWR DGND
+	A B   A_BUF B_BUF 
+	D0_GATE IO_L IO_LEVEL={IO_LEVEL} 
U1 or(2) DPWR DGND
+	A_BUF B_BUF   C 
+	D_L86_1 IO_L MNTYMXDLY={MNTYMXDLY} 
U2 nand(2) DPWR DGND
+	A_BUF B_BUF   D 
+	D_L86_2 IO_L MNTYMXDLY={MNTYMXDLY} 
U3 and(2) DPWR DGND
+	C D   Y 
+	D_L86_3 IO_L MNTYMXDLY={MNTYMXDLY} IO_LEVEL={IO_LEVEL} 
.ends
*
.model D_L86_1 ugate (
+	tplhty=75ns	tplhmx=150ns
+	tphlty=25ns	tphlmx=90ns
+	)
.model D_L86_2 ugate (
+	tplhty=50ns	tplhmx=90ns
+	)
.model D_L86_3 ugate (
+	tphlty=35ns	tphlmx=60ns
+	)
*$
*-------
* 74L86  Quadruple 2-input Exclusive-Or Gates      
*
* 1984 National Semiconductor.  Updated 8/20/90
*
.subckt 74L86  A B Y
+	optional: DPWR=$G_DPWR DGND=$G_DGND
+	params: MNTYMXDLY=0 IO_LEVEL=0
UIBUF bufa(2) DPWR DGND
+	A B   A_BUF B_BUF 
+	D0_GATE IO_L IO_LEVEL={IO_LEVEL} 
U1 or(2) DPWR DGND
+	A_BUF B_BUF   C 
+	D_74L86_1 IO_L MNTYMXDLY={MNTYMXDLY} 
U2 nand(2) DPWR DGND
+	A_BUF B_BUF   D 
+	D_74L86_2 IO_L MNTYMXDLY={MNTYMXDLY} 
U3 and(2) DPWR DGND
+	C D   Y 
+	D_74L86_3 IO_L MNTYMXDLY={MNTYMXDLY} IO_LEVEL={IO_LEVEL} 
.ends
*
.model D_74L86_1 ugate (
+	tplhty=30ns	tplhmx=53ns
+	tphlty=14ns	tphlmx=53ns
+	)
.model D_74L86_2 ugate (
+	tplhty=18ns	tplhmx=53ns
+	tphlty=28ns	tphlmx=53ns
+	)
.model D_74L86_3 ugate (
+	tplhty=7ns	tplhmx=7ns
+	tphlty=7ns	tphlmx=7ns
+	)
*$
*---------
* 54L90  COUNTER DECADE 4-BIT, ASYNCHRONOUS
*
* THE TTL DATA BOOK, VOLUME 2, STANDARD, S, LS, TTL; 1985, TI
* JLS   7-7-92   REMODELED USING LOGICEXP, PINDLY, AND CONSTRAINT DEVICES
* NOTICE: THE TIMING OF THE 54L90 WAS POORLY DEFINED IN THE DATA BOOK.  SO,
*         SOME TIMING CHARACTERISTICS WERE GUESSED, PATTERNED WITH THE 74LS90
*
.SUBCKT 54L90   R91_I R92_I CKA_I CKB_I R01_I R02_I   QA_O QB_O QC_O QD_O
+ OPTIONAL: DPWR=$G_DPWR DGND=$G_DGND
+ PARAMS: MNTYMXDLY=0 IO_LEVEL=0
*
U1 JKFF(1) DPWR DGND
+ SET9BAR CLRBAR   CKA     $D_HI $D_HI   QA $D_NC
+ D0_EFF  IO_L
U2 JKFF(1) DPWR DGND
+ $D_HI   CLRBAR23 CKB     QDBAR $D_HI   QB $D_NC 
+ D0_EFF  IO_L
U3 JKFF(1) DPWR DGND
+ $D_HI   CLRBAR23 QB      $D_HI $D_HI   QC $D_NC 
+ D0_EFF  IO_L
U4 JKFF(1) DPWR DGND
+ SET9BAR CLRBAR   CKB     J4    QD      QD QDBAR 
+ D0_EFF  IO_L
UL90LOG LOGICEXP (8,10) DPWR DGND