* Library of 74LS Family Digital Models
*
*  Copyright OrCAD, Inc. 1998 All Rights Reserved.
*
*
* $Revision:   1.4  $
* $Author:   RPEREZ  $
* $Date:   17 Apr 1998 09:57:46  $
*
*
*$
*---------
* 74LS00  Quadruple 2-input Positive-Nand Gates
*
* The TTL Data Book, Vol 2, 1985, TI
* tdn   06/23/89	Update interface and model names
*
.subckt 74LS00  A B Y
+	optional: DPWR=$G_DPWR DGND=$G_DGND
+	params: MNTYMXDLY=0 IO_LEVEL=0
U1 nand(2) DPWR DGND
+	A B   Y 
+	D_LS00 IO_LS MNTYMXDLY={MNTYMXDLY} IO_LEVEL={IO_LEVEL} 
.ends
*
.model D_LS00 ugate (
+	tplhty=9ns	tplhmx=15ns
+	tphlty=10ns	tphlmx=15ns
+	)
*$
*---------
* 74LS01  Quadruple 2-input Positive-Nand Gates with Open-Collector Outputs
*
* The TTL Data Book, Vol 2, 1985, TI
* tdn	06/23/89	Update interface and model names
*
.subckt 74LS01  A B Y
+	optional: DPWR=$G_DPWR DGND=$G_DGND
+	params: MNTYMXDLY=0 IO_LEVEL=0
U1 nand(2) DPWR DGND
+	A B   Y 
+	D_LS01 IO_LS_OC MNTYMXDLY={MNTYMXDLY} IO_LEVEL={IO_LEVEL} 
.ends
*
.model D_LS01 ugate (
+	tplhty=17ns	tplhmx=32ns
+	tphlty=15ns	tphlmx=28ns
+	)
*$
*---------
* 74LS02  Quadruple 2-input Positive-Nor Gates
*
* The TTL Data Book, Vol 2, 1985, TI
* tdn	06/23/89	Update interface and model names
*
.subckt 74LS02  A B Y
+	optional: DPWR=$G_DPWR DGND=$G_DGND
+	params: MNTYMXDLY=0 IO_LEVEL=0
U1 nor(2) DPWR DGND
+	A B   Y 
+	D_LS02 IO_LS MNTYMXDLY={MNTYMXDLY} IO_LEVEL={IO_LEVEL} 
.ends
*
.model D_LS02 ugate (
+	tplhty=10ns	tplhmx=15ns
+	tphlty=10ns	tphlmx=15ns
+	)
*$
*---------
* 74LS03  Quadruple 2-input Positive-Nand Gates with Open-Collector Outputs
*
* The TTL Data Book, Vol 2, 1985, TI
* tdn	06/23/89	Update interface and model names
*
.subckt 74LS03  A B Y
+	optional: DPWR=$G_DPWR DGND=$G_DGND
+	params: MNTYMXDLY=0 IO_LEVEL=0
U1 nand(2) DPWR DGND
+	A B   Y 
+	D_LS03 IO_LS_OC MNTYMXDLY={MNTYMXDLY} IO_LEVEL={IO_LEVEL} 
.ends
*
.model D_LS03 ugate (
+	tplhty=17ns	tplhmx=32ns
+	tphlty=15ns	tphlmx=28ns
+	)
*$
*---------
* 74LS04  Hex Inverters
*
* The TTL Data Book, Vol 2, 1985, TI
* tdn	06/23/89	Update interface and model names
*
.subckt 74LS04  A Y
+	optional: DPWR=$G_DPWR DGND=$G_DGND
+	params: MNTYMXDLY=0 IO_LEVEL=0
U1 inv DPWR DGND
+	A   Y 
+	D_LS04 IO_LS MNTYMXDLY={MNTYMXDLY} IO_LEVEL={IO_LEVEL} 
.ends
*
.model D_LS04 ugate (
+	tplhty=9ns	tplhmx=15ns
+	tphlty=10ns	tphlmx=15ns
+	)
*$
*---------
* 74LS05  Hex Inverters with Open-Collector Outputs
*
* The TTL Data Book, Vol 2, 1985, TI 
* tdn 	06/23/89	Update interface and model names
*
.subckt 74LS05  A Y
+	optional: DPWR=$G_DPWR DGND=$G_DGND
+	params: MNTYMXDLY=0 IO_LEVEL=0
U1 inv DPWR DGND
+	A   Y 
+	D_LS05 IO_LS_OC MNTYMXDLY={MNTYMXDLY} IO_LEVEL={IO_LEVEL} 
.ends
*
.model D_LS05 ugate (
+	tplhty=17ns	tplhmx=32ns
+	tphlty=15ns	tphlmx=28ns
+	)
*$
*---------
* 74LS08  Quadruple 2-input Positive-And Gates
*
* The TTL Data Book, Vol 2, 1985,  TI
* tdn 	06/23/89	Update interface and model names
*
.subckt 74LS08  A B Y
+	optional: DPWR=$G_DPWR DGND=$G_DGND
+	params: MNTYMXDLY=0 IO_LEVEL=0
U1 and(2) DPWR DGND
+	A B   Y 
+	D_LS08 IO_LS MNTYMXDLY={MNTYMXDLY} IO_LEVEL={IO_LEVEL} 
.ends
*
.model D_LS08 ugate (
+	tplhty=8ns	tplhmx=15ns
+	tphlty=10ns	tphlmx=20ns
+	)
*$
*---------
* 74LS09  Quadruple 2-input Positive-And Gates with Open-Collector Outputs
*
* The TTL Data Book, Vol 2, 1985, TI
* tdn	06/23/89	Update interface and model names
*
.subckt 74LS09  A B Y
+	optional: DPWR=$G_DPWR DGND=$G_DGND
+	params: MNTYMXDLY=0 IO_LEVEL=0
U1 and(2) DPWR DGND
+	A B   Y 
+	D_LS09 IO_LS_OC MNTYMXDLY={MNTYMXDLY} IO_LEVEL={IO_LEVEL} 
.ends
*
.model D_LS09 ugate (
+	tplhty=20ns	tplhmx=35ns
+	tphlty=17ns	tphlmx=35ns
+	)
*$
*---------
* 74LS10  Triple 3-input Positive-Nand Gates
*
* The TTL Data Book, Vol 2, 1985, TI
* tdn	06/23/89	Update interface and model names
*
.subckt 74LS10  A B C Y
+	optional: DPWR=$G_DPWR DGND=$G_DGND
+	params: MNTYMXDLY=0 IO_LEVEL=0
U1 nand(3) DPWR DGND
+	A B C   Y 
+	D_LS10 IO_LS MNTYMXDLY={MNTYMXDLY} IO_LEVEL={IO_LEVEL} 
.ends
*
.model D_LS10 ugate (
+	tplhty=9ns	tplhmx=15ns
+	tphlty=10ns	tphlmx=15ns
+	)
*$
*---------
* 74LS11  Triple 3-input Positive-And Gates
* 
* The TTL Data Book, Vol 2, 1985, TI
* tdn	06/23/89	Update interface and model names
*
.subckt 74LS11  A B C Y
+	optional: DPWR=$G_DPWR DGND=$G_DGND
+	params: MNTYMXDLY=0 IO_LEVEL=0
U1 and(3) DPWR DGND
+	A B C   Y 
+	D_LS11 IO_LS MNTYMXDLY={MNTYMXDLY} IO_LEVEL={IO_LEVEL} 
.ends
*
.model D_LS11 ugate (
+	tplhty=8ns	tplhmx=15ns
+	tphlty=10ns	tphlmx=20ns
+	)
*$
*---------
* 74LS12  Triple 3-input Positive-Nand Gates with Open-Collector Outputs
*
* The TTL Data Book, Vol 2, 1985, TI
* tdn	06/23/89	Update interface and model names
*
.subckt 74LS12  A B C Y
+	optional: DPWR=$G_DPWR DGND=$G_DGND
+	params: MNTYMXDLY=0 IO_LEVEL=0
U1 nand(3) DPWR DGND
+	A B C   Y 
+	D_LS12 IO_LS_OC MNTYMXDLY={MNTYMXDLY} IO_LEVEL={IO_LEVEL} 
.ends
*
.model D_LS12 ugate (
+	tplhty=17ns	tplhmx=32ns
+	tphlty=15ns	tphlmx=28ns
+	)
*$
*---------
* 74LS13  Dual 4-input Positive-Nand Schmitt Triggers
* 
* The TTL Data Book, Vol 2, 1985, TI
* tdn	06/23/89	Update interface and model names
*
.subckt 74LS13  A B C D Y
+	optional: DPWR=$G_DPWR DGND=$G_DGND
+	params: MNTYMXDLY=0 IO_LEVEL=0
* Note: These devices are modeled as simple Nand gates.
*       Hysteresis is modeled in the AtoD interface
*
U1 nand(4) DPWR DGND
+	A B C D   Y 
+	D_LS13 IO_LS_ST MNTYMXDLY={MNTYMXDLY} IO_LEVEL={IO_LEVEL} 
.ends
*
.model D_LS13 ugate (
+	tplhty=15ns	tplhmx=22ns
+	tphlty=18ns	tphlmx=27ns
+	)
*$
*---------
* 74LS14  Hex Schmitt-Trigger Inverters
*
* The TTL Data Book, Vol 2, 1985, TI
* tdn	06/23/89	Update interface and model names
*
.subckt 74LS14  A Y
+	optional: DPWR=$G_DPWR DGND=$G_DGND
+	params: MNTYMXDLY=0 IO_LEVEL=0
* Note: These devices are modeled as simple inverters
*       Hysteresis is modeled in the AtoD interface
*
U1 inv DPWR DGND
+	A   Y 
+	D_LS14 IO_LS_ST MNTYMXDLY={MNTYMXDLY} IO_LEVEL={IO_LEVEL} 
.ends
*
.model D_LS14 ugate (
+	tplhty=15ns	tplhmx=22ns
+	tphlty=15ns	tphlmx=22ns
+	)
*$
*---------
* 74LS15  Triple 3-input Positive-And Gates with Open-Collector Outputs
*
* The TTL Data Book, Vol 2, 1985, TI
* tdn	06/26/89	Update interface and model names
*
.subckt 74LS15  A B C Y
+	optional: DPWR=$G_DPWR DGND=$G_DGND
+	params: MNTYMXDLY=0 IO_LEVEL=0
U1 and(3) DPWR DGND
+	A B C   Y 
+	D_LS15 IO_LS_OC MNTYMXDLY={MNTYMXDLY} IO_LEVEL={IO_LEVEL} 
.ends
*
.model D_LS15 ugate (
+	tplhty=20ns	tplhmx=35ns
+	tphlty=17ns	tphlmx=35ns
+	)
*$
*-------------------------------------------------------------------------
* 74LS18  Schmitt-Trigger 4-input Positive-Nand Gates with Totem-Pole Outputs    
*
* The TTL Data Book, Vol 2, 1985, TI
* tdn	06/26/89	Update interface and model names
*
.subckt 74LS18  A B C D Y
+	optional: DPWR=$G_DPWR DGND=$G_DGND
+	params: MNTYMXDLY=0 IO_LEVEL=0
* Note: These devices are modeled as simple inverters
*       Hysteresis is modeled in the AtoD interface
*
U1 nand(4) DPWR DGND
+	A B C D   Y 
+	D_LS18 IO_LS_ST MNTYMXDLY={MNTYMXDLY} IO_LEVEL={IO_LEVEL} 
.ends
*
.model D_LS18 ugate (
+	tplhty=13ns	tplhmx=20ns
+	tphlty=37ns	tphlmx=55ns
+	)
*$
*-------------------------------------------------------------------------
* 74LS19  Schmitt-Trigger Inverters with Totem-Pole Outputs      
*
* The TTL Data Book, Vol 2, 1985, TI
* tdn	06/26/89	Update interface and model names
*
.subckt 74LS19  A Y
+	optional: DPWR=$G_DPWR DGND=$G_DGND
+	params: MNTYMXDLY=0 IO_LEVEL=0
* Note: These devices are modeled as simple inverters.
*       Hysteresis is modeled in the AtoD interface.
*
U1 inv DPWR DGND
+	A   Y 
+	D_LS19 IO_LS_ST MNTYMXDLY={MNTYMXDLY} IO_LEVEL={IO_LEVEL} 
.ends
*
.model D_LS19 ugate (
+	tplhty=13ns	tplhmx=20ns
+	tphlty=18ns	tphlmx=30ns
+	)
*$
*---------
* 74LS20  Dual 4-input Positive-Nand Gates
*
* The TTL Data Book, Vol 2, 1985, TI
* tdn	06/26/89	Update interface and model names
*
.subckt 74LS20  A B C D Y
+	optional: DPWR=$G_DPWR DGND=$G_DGND
+	params: MNTYMXDLY=0 IO_LEVEL=0
U1 nand(4) DPWR DGND
+	A B C D   Y 
+	D_LS20 IO_LS MNTYMXDLY={MNTYMXDLY} IO_LEVEL={IO_LEVEL} 
.ends
*
.model D_LS20 ugate (
+	tplhty=9ns	tplhmx=15ns
+	tphlty=10ns	tphlmx=15ns
+	)
*$
*---------
* 74LS21  Dual 4-input Positive-And Gates
*
* The TTL Data Book, Vol 2, 1985, TI
* tdn	06/26/89	Update interface and model names
*
.subckt 74LS21  A B C D Y
+	optional: DPWR=$G_DPWR DGND=$G_DGND
+	params: MNTYMXDLY=0 IO_LEVEL=0
U1 and(4) DPWR DGND
+	A B C D   Y 
+	D_LS21 IO_LS MNTYMXDLY={MNTYMXDLY} IO_LEVEL={IO_LEVEL} 
.ends
*
.model D_LS21 ugate (
+	tplhty=8ns	tplhmx=15ns
+	tphlty=10ns	tphlmx=20ns
+	)
*$
*---------
* 74LS22  Dual 4-input Positive-Nand Gates with Open-Collector Outputs
*
* The TTL Data Book, Vol 2, 1985, TI
* tdn	06/26/89	Update interface and model names
*
.subckt 74LS22  A B C D Y
+	optional: DPWR=$G_DPWR DGND=$G_DGND
+	params: MNTYMXDLY=0 IO_LEVEL=0
U1 nand(4) DPWR DGND
+	A B C D   Y 
+	D_LS22 IO_LS_OC MNTYMXDLY={MNTYMXDLY} IO_LEVEL={IO_LEVEL} 
.ends
*
.model D_LS22 ugate (
+	tplhty=17ns	tplhmx=32ns
+	tphlty=15ns	tphlmx=28ns
+	)
*$
*-------------------------------------------------------------------------
* 74LS24  Schmitt-Trigger 2-input Positive-Nand Gates w/ Totem-Pole Outputs    
*
* The TTL Data Book, Vol 2, 1985, TI
* tdn	06/26/89	Update interface and model names
*
.subckt 74LS24  A B Y
+	optional: DPWR=$G_DPWR DGND=$G_DGND
+	params: MNTYMXDLY=0 IO_LEVEL=0
* Note: These devices are modeled as simple Nand gates.
*	Hysteresis is modeled in the AtoD interface.
*
U1 nand(2) DPWR DGND
+	A B   Y 
+	D_LS24 IO_LS_ST MNTYMXDLY={MNTYMXDLY} IO_LEVEL={IO_LEVEL} 
.ends
*
.model D_LS24 ugate (
+	tplhty=13ns	tplhmx=20ns
+	tphlty=25ns	tphlmx=40ns
+	)
*$
*---------
* 74LS26  High-Voltage Interface Positive-Nand Gates
*
* The TTL Data Book, Vol 2, 1985, TI
* tdn	06/26/89	Update interface and model names
*
.subckt 74LS26  A B Y
+	optional: DPWR=$G_DPWR DGND=$G_DGND
+	params: MNTYMXDLY=0 IO_LEVEL=0
U1 nand(2) DPWR DGND
+	A B   Y 
+	D_LS26 IO_LS_OC MNTYMXDLY={MNTYMXDLY} IO_LEVEL={IO_LEVEL} 
.ends
*
.model D_LS26 ugate (
+	tplhty=17ns	tplhmx=32ns
+	tphlty=15ns	tphlmx=28ns
+	)
*$
*---------
* 74LS27  Triple 3-input Positive-Nor Gates
*
* The TTL Data Book, Vol 2, 1985, TI
* tdn	06/26/89	Update interface and model names
*
.subckt 74LS27  A B C Y
+	optional: DPWR=$G_DPWR DGND=$G_DGND
+	params: MNTYMXDLY=0 IO_LEVEL=0
U1 nor(3) DPWR DGND
+	A B C   Y 
+	D_LS27 IO_LS MNTYMXDLY={MNTYMXDLY} IO_LEVEL={IO_LEVEL} 
.ends
*
.model D_LS27 ugate (
+	tplhty=10ns	tplhmx=15ns
+	tphlty=10ns	tphlmx=15ns
+	)
*$
*---------
* 74LS28  Quadruple 2-input Positive-Nor Buffers
*
* The TTL Data Book, Vol 2, 1985, TI
* tdn	06/26/89	Update interface and model names
*
.subckt 74LS28  A B Y
+	optional: DPWR=$G_DPWR DGND=$G_DGND
+	params: MNTYMXDLY=0 IO_LEVEL=0
U1 nor(2) DPWR DGND
+	A B   Y 
+	D_LS28 IO_LS MNTYMXDLY={MNTYMXDLY} IO_LEVEL={IO_LEVEL} 
.ends
*
.model D_LS28 ugate (
+	tplhty=12ns	tplhmx=24ns
+	tphlty=12ns	tphlmx=24ns
+	)
*$
*---------
* 74LS30  8-input Positive-Nand Gates
*
* The TTL Data Book, Vol 2, 1985, TI
* tdn	06/26/89	Update interface and model names
*
.subckt 74LS30  A B C D E F G H Y
+	optional: DPWR=$G_DPWR DGND=$G_DGND
+	params: MNTYMXDLY=0 IO_LEVEL=0
U1 nand(8) DPWR DGND
+	A B C D E F G H   Y 
+	D_LS30 IO_LS MNTYMXDLY={MNTYMXDLY} IO_LEVEL={IO_LEVEL} 
.ends
*
.model D_LS30 ugate (
+	tplhty=8ns	tplhmx=15ns
+	tphlty=13ns	tphlmx=20ns
+	)
*$
*-------------------------------------------------------------------------
* 74LS31  Delay Elements
*
* The TTL Data Book, Vol 2, 1985, TI
* tdn	8/10/89		Update interface and model names
*
.subckt 74LS31  1A 2A 3A 3B 1Y 2Y 3Y
+	optional: DPWR=$G_DPWR DGND=$G_DGND
+	params: MNTYMXDLY=0 IO_LEVEL=0
* Note: In this IC, there are 2 inverting, & 2 non-inverting delay gates, and
* 2 2-input NAND gates.  However, the model here only contains 1 gate per type.
* If more gates are needed, please call the SUBCKT twice.
*
U1 inv DPWR DGND
+	1A   1Y 
+	D_LS31_1 IO_LS MNTYMXDLY={MNTYMXDLY} IO_LEVEL={IO_LEVEL} 
U2 buf DPWR DGND
+	2A   2Y 
+	D_LS31_2 IO_LS MNTYMXDLY={MNTYMXDLY} IO_LEVEL={IO_LEVEL} 
U3 nand(2) DPWR DGND
+	3A 3B   3Y 
+	D_LS31_3 IO_LS MNTYMXDLY={MNTYMXDLY} IO_LEVEL={IO_LEVEL} 
.ends
*
.model D_LS31_1 ugate (
+	tplhmn=22ns	tplhty=32ns
+	tplhmx=65ns	tphlmn=13ns
+	tphlty=23ns	tphlmx=45ns
+	)
.model D_LS31_2 ugate (
+	tplhmn=31ns	tplhty=45ns
+	tplhmx=80ns	tphlmn=30ns
+	tphlty=48ns	tphlmx=95ns
+	)
.model D_LS31_3 ugate (
+	tplhmn=2ns	tplhty=6ns
+	tplhmx=15ns	tphlmn=2ns
+	tphlty=6ns	tphlmx=15ns
+	)
*$
*---------
* 74LS32  Quadruple 2-input Positive-Or Gates
*
* The TTL Data Book, Vol 2, 1985, TI
* tdn	06/26/89	Update interface and model names
*
.subckt 74LS32  A B Y
+	optional: DPWR=$G_DPWR DGND=$G_DGND
+	params: MNTYMXDLY=0 IO_LEVEL=0
U1 or(2) DPWR DGND
+	A B   Y 
+	D_LS32 IO_LS MNTYMXDLY={MNTYMXDLY} IO_LEVEL={IO_LEVEL} 
.ends
*
.model D_LS32 ugate (
+	tplhty=14ns	tplhmx=22ns
+	tphlty=14ns	tphlmx=22ns
+	)
*$
*---------
* 74LS33  Quadruple 2-input Positive-Nor Buffers w/ Open-Collector Outputs
*
* The TTL Data Book, Vol 2, 1985, TI
* tdn	06/26/89	Update interface and model names
*
.subckt 74LS33  A B Y
+	optional: DPWR=$G_DPWR DGND=$G_DGND
+	params: MNTYMXDLY=0 IO_LEVEL=0
U1 nor(2) DPWR DGND
+	A B   Y 
+	D_LS33 IO_LS_OC MNTYMXDLY={MNTYMXDLY} IO_LEVEL={IO_LEVEL} 
.ends
*
.model D_LS33 ugate (
+	tplhty=20ns	tplhmx=32ns
+	tphlty=18ns	tphlmx=28ns
+	)
*$
*---------
* 74LS37  Quadruple 2-input Positive-Nand Buffers
*
* The TTL Data Book, Vol 2, 1985, TI
* tdn	06/26/89	Update interface and model names
*
.subckt 74LS37  A B Y
+	optional: DPWR=$G_DPWR DGND=$G_DGND
+	params: MNTYMXDLY=0 IO_LEVEL=0
U1 nand(2) DPWR DGND
+	A B   Y 
+	D_LS37 IO_LS MNTYMXDLY={MNTYMXDLY} IO_LEVEL={IO_LEVEL} 
.ends
*
.model D_LS37 ugate (
+	tplhty=12ns	tplhmx=24ns
+	tphlty=12ns	tphlmx=24ns
+	)
*$
*---------
* 74LS38  Quadruple 2-input Positive-Nand Buffers w/ Open-Collector Outputs
*
* The TTL Data Book, Vol 2, 1985, TI
* tdn	06/26/89	Update interface and model names
*
.subckt 74LS38  A B Y
+	optional: DPWR=$G_DPWR DGND=$G_DGND
+	params: MNTYMXDLY=0 IO_LEVEL=0
U1 nand(2) DPWR DGND
+	A B   Y 
+	D_LS38 IO_LS_OC MNTYMXDLY={MNTYMXDLY} IO_LEVEL={IO_LEVEL} 
.ends
*
.model D_LS38 ugate (
+	tplhty=20ns	tplhmx=32ns
+	tphlty=18ns	tphlmx=28ns
+	)
*$
*---------
* 74LS40  Dual 4-input Positive-Nand Buffers
*
* The TTL Data Book, Vol 2, 1985, TI
* tdn	06/26/89	Update interface and model names
*
.subckt 74LS40  A B C D Y
+	optional: DPWR=$G_DPWR DGND=$G_DGND
+	params: MNTYMXDLY=0 IO_LEVEL=0
U1 nand(4) DPWR DGND
+	A B C D   Y 
+	D_LS40 IO_LS MNTYMXDLY={MNTYMXDLY} IO_LEVEL={IO_LEVEL} 
.ends
*
.model D_LS40 ugate (
+	tplhty=12ns	tplhmx=24ns
+	tphlty=12ns	tphlmx=24ns
+	)
*$
*--------
* 74LS42  DECODER BCD-DECIMAL 4-10 LINE
*
* TTL LOGIC STANDARD TTL, S, LS DATA BOOK, APR 1988, TI
* JLS   7-30-92   REMODELED USING LOGICEXP, PINDLY, AND CONSTRAINT DEVICES
*
.SUBCKT 74LS42   A_I B_I C_I D_I
+ Y0_O Y1_O Y2_O Y3_O Y4_O Y5_O Y6_O Y7_O Y8_O Y9_O
+ OPTIONAL: DPWR=$G_DPWR DGND=$G_DGND
+ PARAMS: MNTYMXDLY=0 IO_LEVEL=0
*
ULS42LOG LOGICEXP (4,14) DPWR DGND
+ A_I B_I C_I D_I
+ A   B   C   D
+ Y0 Y1 Y2 Y3 Y4 Y5 Y6 Y7 Y8 Y9
+ D0_GATE IO_LS
+ IO_LEVEL={IO_LEVEL}
+
+ LOGIC:
+   A    = { A_I }
+   B    = { B_I }
+   C    = { C_I }
+   D    = { D_I }
+   ABAR = { ~A }
+   BBAR = { ~B }
+   CBAR = { ~C }
+   DBAR = { ~D }
+   Y0   = { ~(DBAR & CBAR & BBAR & ABAR ) }
+   Y1   = { ~(DBAR & CBAR & BBAR & A    ) }
+   Y2   = { ~(DBAR & CBAR & B    & ABAR ) }
+   Y3   = { ~(DBAR & CBAR & B    & A    ) }
+   Y4   = { ~(DBAR & C    & BBAR & ABAR ) }
+   Y5   = { ~(DBAR & C    & BBAR & A    ) }
+   Y6   = { ~(DBAR & C    & B    & ABAR ) }
+   Y7   = { ~(DBAR & C    & B    & A    ) }
+   Y8   = { ~(D    & CBAR & BBAR & ABAR ) }
+   Y9   = { ~(D    & CBAR & BBAR & A    ) }
*
ULS42DLY PINDLY (10,0,4) DPWR DGND
+ Y0 Y1 Y2 Y3 Y4 Y5 Y6 Y7 Y8 Y9
+ A B C D
+ Y0_O Y1_O Y2_O Y3_O Y4_O Y5_O Y6_O Y7_O Y8_O Y9_O
+ IO_LS
+ MNTYMXDLY={MNTYMXDLY} IO_LEVEL={IO_LEVEL}
+
+ BOOLEAN:
+   ADDRA = { CHANGED(A,0) }
+   ADDRB = { CHANGED(B,0) }
+   ADDRC = { CHANGED(C,0) }
+   ADDRD = { CHANGED(D,0) }
+
+ PINDLY:
+   Y0_O = { DELAY(-1,15NS,25NS) }
+   Y1_O = {
+     CASE (
+       ADDRA         , DELAY(-1,20NS,30NS),
+       DELAY(-1,15NS,25NS)
+       )
+     }
+   Y2_O = {
+     CASE (
+       ADDRB         , DELAY(-1,20NS,30NS),
+       DELAY(-1,15NS,25NS)
+       )
+     }
+   Y3_O = {
+     CASE (
+       ADDRA | ADDRB , DELAY(-1,20NS,30NS),
+       DELAY(-1,15NS,25NS)
+       )
+     }
+   Y4_O = {
+     CASE (
+       ADDRC         , DELAY(-1,20NS,30NS),
+       DELAY(-1,15NS,25NS)
+       )
+     }
+   Y5_O = {
+     CASE (
+       ADDRA | ADDRC , DELAY(-1,20NS,30NS),
+       DELAY(-1,15NS,25NS)
+       )
+     }
+   Y6_O = {
+     CASE (
+       ADDRB | ADDRC , DELAY(-1,20NS,30NS),
+       DELAY(-1,15NS,25NS)
+       )
+     }
+   Y7_O = {
+     CASE (
+       ADDRA | ADDRB | ADDRC , DELAY(-1,20NS,30NS),
+       DELAY(-1,15NS,25NS)
+       )
+     }
+   Y8_O = {
+     CASE (
+       ADDRD         , DELAY(-1,20NS,30NS),
+       DELAY(-1,15NS,25NS)
+       )
+     }
+   Y9_O = {
+     CASE (
+       ADDRA | ADDRD , DELAY(-1,20NS,30NS),
+       DELAY(-1,15NS,25NS)
+       )
+     }
*
.ENDS
*
*$
*---------
* 74LS47  DECODER/DRIVER BCD-7 SEGMENT WITH OPEN COLLECTOR OUTPUTS
*
* TTL LOGIC STANDARD TTL, S, LS DATA BOOK, APR 1988, TI
* JLS   8-26-92   REMODELED USING LOGICEXP, PINDLY, AND CONSTRAINT DEVICES
*    
.SUBCKT 74LS47   INA_I INB_I INC_I IND_I RBIBAR_I LTBAR_I BIBAR/RBOBAR_B
+ OUTA_O OUTB_O OUTC_O OUTD_O OUTE_O OUTF_O OUTG_O
+ OPTIONAL: DPWR=$G_DPWR DGND=$G_DGND
+ PARAMS: MNTYMXDLY=0 IO_LEVEL=0
*
U1 OR(6) DPWR DGND
+ LT RBIBAR INA INB INC IND
+ BIBAR/RBOBAR_B
+ D0_GATE IO_LS 
+ IO_LEVEL={IO_LEVEL}
*
ULS47LOG LOGICEXP (7,13) DPWR DGND
+ INA_I INB_I INC_I IND_I RBIBAR_I LTBAR_I BIBAR/RBOBAR_B
+ INA   INB   INC   IND   RBIBAR   LT
+ OUTA OUTB OUTC OUTD OUTE OUTF OUTG
+ D0_GATE IO_LS
+ IO_LEVEL={IO_LEVEL}
+
+ LOGIC:
+   INA    = { INA_I }
+   INB    = { INB_I }
+   INC    = { INC_I }
+   IND    = { IND_I }
+   RBIBAR = { RBIBAR_I }
+   LTBAR  = { LTBAR_I }
+   BIBAR/RBOBAR  = { BIBAR/RBOBAR_B }
+
+   LT     = { ~LTBAR }
+   ALT    = { ~(INA & LTBAR) }
+   BLT    = { ~(INB & LTBAR) }
+   CLT    = { ~(INC & LTBAR) }
+   DLT    = { ~IND }
+   ABI    = { ~(ALT & BIBAR/RBOBAR) }
+   BBI    = { ~(BLT & BIBAR/RBOBAR) }
+   CBI    = { ~(CLT & BIBAR/RBOBAR) }
+   DBI    = { ~(DLT & BIBAR/RBOBAR) }
+
+   OUTA   = { (BBI & DBI) | (ALT & CBI) | (ABI & BLT & CLT & DLT) }
+   OUTB   = { (BBI & DBI) | (ABI & BLT & CBI) | (ALT & BBI & CBI) }
+   OUTC   = { (CBI & DBI) | (ALT & BBI & CLT) }
+   OUTD   = { (ABI & BLT & CLT) | (ALT & BLT & CBI) | (ABI & BBI & CBI) }
+   OUTE   = {  ABI | (BLT & CBI) }
+   OUTF   = { (ABI & BBI) | (BBI & CLT) | (ABI & CLT & DLT) }
+   OUTG   = { (ABI & BBI & CBI) | (BLT & CLT & DLT & LTBAR) }
*
ULS47DLY_OC PINDLY (7,0,0) DPWR DGND
+ OUTA OUTB OUTC OUTD OUTE OUTF OUTG
+
+ OUTA_O OUTB_O OUTC_O OUTD_O OUTE_O OUTF_O OUTG_O
+ IO_LS_OC
+ MNTYMXDLY={MNTYMXDLY} IO_LEVEL={IO_LEVEL}
+
+ PINDLY:
+   OUTA_O OUTB_O OUTC_O OUTD_O OUTE_O OUTF_O OUTG_O =
+     { DELAY(-1,-1,100NS) }
*
.ENDS
*
*$
*--------
* 74LS48  DECODER/DRIVER BCD-7 SEGMENT WITH INTERNAL PULLUPS
*
* TTL LOGIC STANDARD TTL, S, LS DATA BOOK, APR 1988, TI
* JLS   8-26-92   REMODELED USING LOGICEXP, PINDLY, AND CONSTRAINT DEVICES
*    
.SUBCKT 74LS48   INA_I INB_I INC_I IND_I RBIBAR_I LTBAR_I BIBAR/RBOBAR_B
+ OUTA_O OUTB_O OUTC_O OUTD_O OUTE_O OUTF_O OUTG_O
+ OPTIONAL: DPWR=$G_DPWR DGND=$G_DGND
+ PARAMS: MNTYMXDLY=0 IO_LEVEL=0
*
U1 OR(6) DPWR DGND
+ LT RBIBAR INA INB INC IND
+ BIBAR/RBOBAR_B
+ D0_GATE IO_LS
+ IO_LEVEL={IO_LEVEL}
*
ULS48LOG LOGICEXP (7,13) DPWR DGND
+ INA_I INB_I INC_I IND_I RBIBAR_I LTBAR_I BIBAR/RBOBAR_B
+ INA   INB   INC   IND   RBIBAR   LT
+ OUTA OUTB OUTC OUTD OUTE OUTF OUTG
+ D0_GATE IO_LS
+ IO_LEVEL={IO_LEVEL}
+
+ LOGIC:
+   INA    = { INA_I }
+   INB    = { INB_I }
+   INC    = { INC_I }
+   IND    = { IND_I }
+   RBIBAR = { RBIBAR_I }
+   LTBAR  = { LTBAR_I }
+   BIBAR/RBOBAR  = { BIBAR/RBOBAR_B }
+
+   LT     = { ~LTBAR }
+   ALT    = { ~(INA & LTBAR) }
+   BLT    = { ~(INB & LTBAR) }
+   CLT    = { ~(INC & LTBAR) }
+   DLT    = { ~IND }
+   ABI    = { ~(ALT & BIBAR/RBOBAR) }
+   BBI    = { ~(BLT & BIBAR/RBOBAR) }
+   CBI    = { ~(CLT & BIBAR/RBOBAR) }
+   DBI    = { ~(DLT & BIBAR/RBOBAR) }
+
+   OUTA   = { ~((BBI & DBI) | (ALT & CBI) | (ABI & BLT & CLT & DLT)) }
+   OUTB   = { ~((BBI & DBI) | (ABI & BLT & CBI) | (ALT & BBI & CBI)) }
+   OUTC   = { ~((CBI & DBI) | (ALT & BBI & CLT)) }
+   OUTD   = { ~((ABI & BLT & CLT) | (ALT & BLT & CBI) | (ABI & BBI & CBI)) }
+   OUTE   = { ~( ABI | (BLT & CBI)) }
+   OUTF   = { ~((ABI & BBI) | (BBI & CLT) | (ABI & CLT & DLT)) }
+   OUTG   = { ~((ABI & BBI & CBI) | (BLT & CLT & DLT & LTBAR)) }
*
ULS48DLY PINDLY (7,0,0) DPWR DGND
+ OUTA OUTB OUTC OUTD OUTE OUTF OUTG
+
+ OUTA_O OUTB_O OUTC_O OUTD_O OUTE_O OUTF_O OUTG_O
+ IO_LS
+ MNTYMXDLY={MNTYMXDLY} IO_LEVEL={IO_LEVEL}
+
+ PINDLY:
+   OUTA_O OUTB_O OUTC_O OUTD_O OUTE_O OUTF_O OUTG_O =
+     { DELAY(-1,-1,100NS) }
*
.ENDS
*
*$
*--------
* 74LS49  DECODER/DRIVER BCD-7 SEGMENT WITH OPEN COLLECTOR OUTPUTS
*
* TTL LOGIC STANDARD TTL, S, LS DATA BOOK, APR 1988, TI
* JLS   8-26-92   REMODELED USING LOGICEXP, PINDLY, AND CONSTRAINT DEVICES
*
.SUBCKT 74LS49   INA_I INB_I INC_I IND_I BIBAR_I
+ OUTA_O OUTB_O OUTC_O OUTD_O OUTE_O OUTF_O OUTG_O
+ OPTIONAL: DPWR=$G_DPWR DGND=$G_DGND
+ PARAMS: MNTYMXDLY=0 IO_LEVEL=0
*
ULS49LOG LOGICEXP (5,7) DPWR DGND
+ INA_I INB_I INC_I IND_I BIBAR_I
+ OUTA OUTB OUTC OUTD OUTE OUTF OUTG
+ D0_GATE IO_LS
+ IO_LEVEL={IO_LEVEL}
+
+ LOGIC:
+   INA   = { INA_I }
+   INB   = { INB_I }
+   INC   = { INC_I }
+   IND   = { IND_I }
+   BIBAR = { BIBAR_I }
+
+   ABAR  = { ~INA }
+   BBAR  = { ~INB }
+   CBAR  = { ~INC }
+   DBAR  = { ~IND }
+   ABI   = { ~(ABAR & BIBAR) }
+   BBI   = { ~(BBAR & BIBAR) }
+   CBI   = { ~(CBAR & BIBAR) }
+   DBI   = { ~(DBAR & BIBAR) }
+
+   OUTA  = { ~((BBI & DBI) | (ABAR & CBI) | (ABI & BBAR & CBAR & DBAR)) }
+   OUTB  = { ~((BBI & DBI) | (ABI & BBAR & CBI) | (ABAR & BBI & CBI)) }
+   OUTC  = { ~((CBI & DBI) | (ABAR & BBI & CBAR)) }
+   OUTD  = { ~((ABI & BBAR & CBAR) | (ABAR & BBAR & CBI) |
+               (ABI & BBI & CBI)) }
+   OUTE  = { ~( ABI | (BBAR & CBI)) }
+   OUTF  = { ~((ABI & BBI) | (BBI & CBAR) | (ABI & CBAR & DBAR)) }
+   OUTG  = { ~((ABI & BBI & CBI) | (BBAR & CBAR & DBAR)) }
*
ULS49DLY_OC PINDLY (7,0,0) DPWR DGND
+ OUTA OUTB OUTC OUTD OUTE OUTF OUTG
+
+ OUTA_O OUTB_O OUTC_O OUTD_O OUTE_O OUTF_O OUTG_O
+ IO_LS_OC
+ MNTYMXDLY={MNTYMXDLY} IO_LEVEL={IO_LEVEL}
+
+ PINDLY:
+   OUTA_O OUTB_O OUTC_O OUTD_O OUTE_O OUTF_O OUTG_O =
+     { DELAY(-1,-1,100NS) }
*
.ENDS
*
*$
*---------
* 74LS51  And-Or-Invert Gates
*
* The TTL Data Book, Vol 2, 1985, TI
* tdn	06/27/89	Update interface and model names
*
.subckt 74LS51  1A 1B 1C 1D 1E 1F 1Y 2A 2B 2C 2D 2Y
+	optional: DPWR=$G_DPWR DGND=$G_DGND
+	params: MNTYMXDLY=0 IO_LEVEL=0
U1 aoi(3,2) DPWR DGND
+	1A 1B 1C 1D 1E 1F   1Y 
+	D_LS51 IO_LS MNTYMXDLY={MNTYMXDLY} IO_LEVEL={IO_LEVEL} 
U2 aoi(2,2) DPWR DGND
+	2A 2B 2C 2D   2Y 
+	D_LS51 IO_LS MNTYMXDLY={MNTYMXDLY} IO_LEVEL={IO_LEVEL} 
.ends
*
.model D_LS51 ugate (
+	tplhty=12ns	tplhmx=20ns
+	tphlty=12.5ns	tphlmx=20ns
+	)
*$
*---------
* 74LS54  4-wide And-Or-Invert Gates
*
* The TTL Data Book, Vol 2, 1985, TI
* tdn	06/27/89	Update interface and model names
*
.subckt 74LS54  A B C D E F G H I J Y
+	optional: DPWR=$G_DPWR DGND=$G_DGND
+	params: MNTYMXDLY=0 IO_LEVEL=0
U1 aoi(3,4) DPWR DGND
+	A	B	$D_HI
+	C	D	E
+	F	G	H
+	I	J	$D_HI
+	Y
+	D_LS54 IO_LS MNTYMXDLY={MNTYMXDLY} IO_LEVEL={IO_LEVEL} 
.ends
*
.model D_LS54 ugate (
+	tplhty=12ns	tplhmx=20ns
+	tphlty=12.5ns	tphlmx=20ns
+	)
*$
*---------
* 74LS55  2-wide 4-input And-Or-Invert Gates
*
* The TTL Data Book, Vol 2, 1985, TI
* tdn	06/27/89	Update interface and model names
*
.subckt 74LS55  A B C D E F G H Y
+	optional: DPWR=$G_DPWR DGND=$G_DGND
+	params: MNTYMXDLY=0 IO_LEVEL=0
U1 aoi(4,2) DPWR DGND
+	A B C D E F G H   Y 
+	D_LS55 IO_L MNTYMXDLY={MNTYMXDLY} IO_LEVEL={IO_LEVEL} 
.ends
*
.model D_LS55 ugate (
+	tplhty=12ns	tplhmx=20ns
+	tphlty=12.5ns	tphlmx=20ns
+	)
*$
*-------------------------------------------------------------------------
* 74LS56  Frequency Dividers(5 to 1, 5 to 1, and 10 to 1)
*
* The TTL Data Book, Vol 2, 1985, TI
* tdn	08/10/89	Update interface and model names
*
.subckt 74LS56  CLR CLKA CLKB QA QB QC
+	optional: DPWR=$G_DPWR DGND=$G_DGND
+	params: MNTYMXDLY=0 IO_LEVEL=0
U1 bufa(2) DPWR DGND
+	CLKA CLKB   CLKA_BUF CLKB_BUF 
+	D0_GATE IO_LS IO_LEVEL={IO_LEVEL} 
U2 inv DPWR DGND
+	CLR   CLRB 
+	D0_GATE IO_LS IO_LEVEL={IO_LEVEL} 
X1  CLRB CLKA_BUF QAD  DPWR DGND  56DIV5
+	params: MNTYMXDLY={MNTYMXDLY} IO_LEVEL={IO_LEVEL}
X2  CLRB CLKB_BUF QBD  DPWR DGND  56DIV5
+	params: MNTYMXDLY={MNTYMXDLY} IO_LEVEL={IO_LEVEL}
X3  CLRB QB1 QC  DPWR DGND  56DIV2
+	params: MNTYMXDLY={MNTYMXDLY} IO_LEVEL={IO_LEVEL}
U3 bufa(2) DPWR DGND
+	QBD QBD   QB QB1 
+	D_LS56_1 IO_LS MNTYMXDLY={MNTYMXDLY} IO_LEVEL={IO_LEVEL} 
U4 buf DPWR DGND
+	QAD   QA 
+	D_LS56_2 IO_LS MNTYMXDLY={MNTYMXDLY} IO_LEVEL={IO_LEVEL} 
.ends
*
.subckt 56DIV5  CLR CLK Q DPWR DGND
+	params: MNTYMXDLY=0 IO_LEVEL=0
UE1 jkff(2) DPWR DGND
+	$D_HI	CLR	CLK
+	QB	Q1	QB	Q1
+	Q1	Q2	$D_NC	$D_NC
+	D_LS56_3 IO_LS MNTYMXDLY={MNTYMXDLY} 
UE2 jkff(1) DPWR DGND
+	$D_HI CLR CLK   EN EN   Q QB 
+	D_LS56_4 IO_LS MNTYMXDLY={MNTYMXDLY} 
U3 ao(2,2) DPWR DGND
+	Q1 Q2 Q $D_HI   EN 
+	D0_GATE IO_LS 
.ends
*
.subckt 56DIV2  CLR CLK Q DPWR DGND
+	params: MNTYMXDLY=0 IO_LEVEL=0
UE1 jkff(1) DPWR DGND
+	$D_HI CLR CLK   $D_HI $D_HI   Q $D_NC 
+	D_LS56_5 IO_LS MNTYMXDLY={MNTYMXDLY} IO_LEVEL={IO_LEVEL} 
.ends
*
.model D_LS56_1 ugate (
+	tplhty=5ns	tplhmx=5ns
+	tphlty=5ns	tphlmx=5ns
+	)
.model D_LS56_2 ugate (
+	tplhty=9ns	tplhmx=10ns
+	tphlty=5ns	tphlmx=5ns
+	)
.model D_LS56_3 ueff (
+	twclkhmn=30ns	twclklmn=30ns
+	tsupcclkhmn=25ns	tppcqhlty=12ns
+	tppcqhlmx=25ns	tpclkqhlty=1ns
+	tpclkqhlmx=1ns	tpclkqlhty=1ns
+	tpclkqlhmx=1ns
+	)
.model D_LS56_4 ueff (
+	twclkhmn=30ns	twclklmn=30ns
+	tsupcclkhmn=25ns	tppcqhlty=12ns
+	tppcqhlmx=25ns	tpclkqlhty=3ns
+	tpclkqlhmx=10ns	tpclkqhlty=9ns
+	tpclkqhlmx=20ns
+	)
.model D_LS56_5 ueff (
+	twclkhmn=30ns	twclklmn=30ns
+	tsupcclkhmn=25ns	tppcqhlty=17ns
+	tppcqhlmx=30ns	tpclkqlhty=4ns
+	tpclkqlhmx=5ns	tpclkqhlty=10ns
+	tpclkqhlmx=10ns
+	)
*$
*-------------------------------------------------------------------------
* 74LS57  Frequency Dividers(6 to 1, 5 to 1, and 10 to 1)
*
* The TTL Data Book, Vol 2, 1985, TI
* tdn    08/10/89   	Update interface and model names
*
.subckt 74LS57  CLR CLKA CLKB QA QB QC
+	optional: DPWR=$G_DPWR DGND=$G_DGND
+	params: MNTYMXDLY=0 IO_LEVEL=0
U1 bufa(2) DPWR DGND
+	CLKA CLKB   CLKA_BUF CLKB_BUF 
+	D0_GATE IO_LS IO_LEVEL={IO_LEVEL} 
U2 inv DPWR DGND
+	CLR   CLRB 
+	D0_GATE IO_LS IO_LEVEL={IO_LEVEL} 
X1  CLRB CLKA_BUF QA  DPWR DGND  57DIV6
+	params: MNTYMXDLY={MNTYMXDLY} IO_LEVEL={IO_LEVEL}
X2  CLRB CLKB_BUF QBD  DPWR DGND  57DIV5
+	params: MNTYMXDLY={MNTYMXDLY} IO_LEVEL={IO_LEVEL}
X3  CLRB QB1 QC  DPWR DGND  57DIV2
+	params: MNTYMXDLY={MNTYMXDLY} IO_LEVEL={IO_LEVEL}
U3 bufa(2) DPWR DGND
+	QBD QBD   QB QB1 
+	D_LS57_1 IO_LS MNTYMXDLY={MNTYMXDLY} IO_LEVEL={IO_LEVEL} 
.ends
*
.subckt 57DIV5  CLR CLK Q DPWR DGND
+	params: MNTYMXDLY=0 IO_LEVEL=0
UE1 jkff(2) DPWR DGND
+	$D_HI	CLR	CLK
+	QB	Q1	QB	Q1
+	Q1	Q2	$D_NC	$D_NC
+	D_LS57_2 IO_LS MNTYMXDLY={MNTYMXDLY} 
UE2 jkff(1) DPWR DGND
+	$D_HI CLR CLK   EN EN   Q QB 
+	D_LS57_3 IO_LS MNTYMXDLY={MNTYMXDLY} 
U3 ao(2,2) DPWR DGND
+	Q1 Q2 Q $D_HI   EN 
+	D0_GATE IO_LS 
.ends
*
.subckt 57DIV2  CLR CLK Q DPWR DGND
+	params: MNTYMXDLY=0 IO_LEVEL=0
UE1 jkff(1) DPWR DGND
+	$D_HI CLR CLK   $D_HI $D_HI   Q $D_NC 
+	D_LS57_4 IO_LS MNTYMXDLY={MNTYMXDLY} IO_LEVEL={IO_LEVEL} 
.ends
*
.subckt 57DIV6  CLR CLK Q DPWR DGND
+	params: MNTYMXDLY=0 IO_LEVEL=0
UE1 jkff(2) DPWR DGND
+	$D_HI	CLR	CLK
+	$D_HI	J2	$D_HI	J2
+	Q1	Q2	$D_NC	$D_NC
+	D_LS57_2 IO_LS MNTYMXDLY={MNTYMXDLY} 
UE3 jkff(1) DPWR DGND
+	$D_HI CLR CLK   EN EN   Q QB 
+	D_LS57_5 IO_LS MNTYMXDLY={MNTYMXDLY} IO_LEVEL={IO_LEVEL} 
U1 ao(2,2) DPWR DGND
+	QB Q2 Q1 $D_HI   J2 
+	D0_GATE IO_LS 
U2 ao(2,2) DPWR DGND
+	Q1 Q2 QB Q2   EN 
+	D0_GATE IO_LS 
.ends
*
.model D_LS57_1 ugate (
+	tplhty=5ns	tplhmx=5ns
+	tphlty=5ns	tphlmx=5ns
+	)
.model D_LS57_2 ueff (
+	twclkhmn=30ns	twclklmn=30ns
+	tsupcclkhmn=25ns	tppcqhlty=17ns
+	tppcqhlmx=25ns	tpclkqhlty=1ns
+	tpclkqhlmx=1ns	tpclkqlhty=1ns
+	tpclkqlhmx=1ns
+	)
.model D_LS57_3 ueff (
+	twclkhmn=30ns	twclklmn=30ns
+	tsupcclkhmn=25ns	tppcqhlty=12ns
+	tppcqhlmx=25ns	tpclkqlhty=3ns
+	tpclkqlhmx=10ns	tpclkqhlty=9ns
+	tpclkqhlmx=20ns
+	)
.model D_LS57_4 ueff (
+	twclkhmn=30ns	twclklmn=30ns
+	tsupcclkhmn=25ns	tppcqhlty=17ns
+	tppcqhlmx=30ns	tpclkqlhty=4ns
+	tpclkqlhmx=5ns	tpclkqhlty=10ns
+	tpclkqhlmx=10ns
+	)
.model D_LS57_5 ueff (
+	twclkhmn=30ns	twclklmn=30ns
+	tsupcclkhmn=25ns	tppcqhlty=17ns
+	tppcqhlmx=30ns	tpclkqlhty=14ns
+	tpclkqlhmx=25ns	tpclkqhlty=18ns
+	tpclkqhlmx=30ns
+	)
*$
*-------------------------------------------------------------------------
* 74LS68  COUNTER DECADE 4-BIT, ASYNCHRONOUS
*
* TTL LOGIC STANDARD TTL, S, LS DATA BOOK, APR 1988, TI
* JLS   7-3-92   REMODELED USING LOGICEXP, PINDLY, AND CONSTRAINT DEVICES
*	    
.SUBCKT 74LS68   1CLRBAR_I 1CLKA_I 1CLKB_I   1QA_O 1QB_O 1QC_O 1QD_O
+                2CLRBAR_I 2CLK_I            2QA_O 2QB_O 2QC_O 2QD_O
+ OPTIONAL: DPWR=$G_DPWR DGND=$G_DGND
+ PARAMS: MNTYMXDLY=0 IO_LEVEL=0
*
U1 JKFF(1) DPWR DGND
+ $D_HI 1CLRBAR 1CLKA     $D_HI $D_HI     1QA $D_NC
+ D0_EFF IO_LS
U2 JKFF(1) DPWR DGND
+ $D_HI 1CLRBAR 1CLOCK2   $D_HI $D_HI     1QB 1QBBAR 
+ D0_EFF IO_LS
U3 JKFF(1) DPWR DGND
+ $D_HI 1CLRBAR 1QB       $D_HI $D_HI     1QC 1QCBAR 
+ D0_EFF IO_LS
U4 JKFF(1) DPWR DGND
+ $D_HI 1CLRBAR 1CLOCK4   $D_HI $D_HI     1QD 1QDBAR 
+ D0_EFF IO_LS
U5 JKFF(1) DPWR DGND
+ $D_HI 2CLRBAR 2CLK      $D_HI $D_HI     2QA $D_NC
+ D0_EFF IO_LS
U6 JKFF(1) DPWR DGND
+ $D_HI 2CLRBAR 2CLOCK2   $D_HI $D_HI     2QB 2QBBAR 
+ D0_EFF IO_LS
U7 JKFF(1) DPWR DGND
+ $D_HI 2CLRBAR 2QB       $D_HI $D_HI     2QC 2QCBAR 
+ D0_EFF IO_LS
U8 JKFF(1) DPWR DGND