* Library of 74S Family Digital Models
*
*  Copyright OrCAD, Inc. 1998 All Rights Reserved.
*
*
* $Revision:   1.3  $
* $Author:   RPEREZ  $
* $Date:   17 Apr 1998 10:01:18  $
*
*
*$
*---------
* 74S00  Quadruple 2-input Positive-Nand Gates
*
* The TTL Data Book, Vol 2, 1985, TI
* tdn   06/23/89	Update interface and model names
*
.subckt 74S00  A B Y
+	optional: DPWR=$G_DPWR DGND=$G_DGND
+	params: MNTYMXDLY=0 IO_LEVEL=0
U1 nand(2) DPWR DGND
+	A B   Y 
+	D_S00 IO_S MNTYMXDLY={MNTYMXDLY} IO_LEVEL={IO_LEVEL} 
.ends
*
.model D_S00 ugate (
+	tplhty=3ns	tplhmx=4.5ns
+	tphlty=3ns	tphlmx=5ns
+	)
*$
*---------
* 74S02  Quadruple 2-input Positive-Nor Gates
*
* The TTL Data Book, Vol 2, 1985, TI
* tdn 	06/23/89	Update interface and model names
*
.subckt 74S02  A B Y
+	optional: DPWR=$G_DPWR DGND=$G_DGND
+	params: MNTYMXDLY=0 IO_LEVEL=0
U1 nor(2) DPWR DGND
+	A B   Y 
+	D_S02 IO_S MNTYMXDLY={MNTYMXDLY} IO_LEVEL={IO_LEVEL} 
.ends
*
.model D_S02 ugate (
+	tplhty=3.5ns	tplhmx=5.5ns
+	tphlty=3.5ns	tphlmx=5.5ns
+	)
*$
*---------
* 74S03  Quadruple 2-input Positive-Nand Gates with Open-Collector Outputs
*
* The TTL Data Book, Vol 2, 1985, TI
* tdn	06/23/89	Update interface and model names
*
.subckt 74S03  A B Y
+	optional: DPWR=$G_DPWR DGND=$G_DGND
+	params: MNTYMXDLY=0 IO_LEVEL=0
U1 nand(2) DPWR DGND
+	A B   Y 
+	D_S03 IO_S_OC MNTYMXDLY={MNTYMXDLY} IO_LEVEL={IO_LEVEL} 
.ends
*
.model D_S03 ugate (
+	tplhty=5ns	tphlty=4.5ns
+	tplhmn=2ns	tplhmx=7.5ns
+	tphlmn=2ns	tphlmx=7ns
+	)
*$
*---------
* 74S04  Hex Inverters
*
* The TTL Data Book, Vol 2, 1985, TI
* tdn	06/23/89	Update interface and model names
*
.subckt 74S04  A Y
+	optional: DPWR=$G_DPWR DGND=$G_DGND
+	params: MNTYMXDLY=0 IO_LEVEL=0
U1 inv DPWR DGND
+	A   Y 
+	D_S04 IO_S MNTYMXDLY={MNTYMXDLY} IO_LEVEL={IO_LEVEL} 
.ends
*
.model D_S04 ugate (
+	tplhty=3ns	tplhmx=4.5ns
+	tphlty=3ns	tphlmx=5ns
+	)
*$
*---------
* 74S05  Hex Inverters with Open-Collector Outputs
*
* The TTL Data Book, Vol 2, 1985, TI
* tdn	06/23/89	Update interface and model names
*
.subckt 74S05  A Y
+	optional: DPWR=$G_DPWR DGND=$G_DGND
+	params: MNTYMXDLY=0 IO_LEVEL=0
U1 inv DPWR DGND
+	A   Y 
+	D_S05 IO_S_OC MNTYMXDLY={MNTYMXDLY} IO_LEVEL={IO_LEVEL} 
.ends
*
.model D_S05 ugate (
+	tplhty=5ns	tphlty=4.5ns
+	tplhmn=2ns	tplhmx=7.5ns
+	tphlmn=2ns	tphlmx=7ns
+	)
*$
*---------
* 74S08  Quadruple 2-input Positive-And Gates
*
* The TTL Data Book, Vol 2, 1985, TI
* tdn	06/23/89	Update interface and model names
*
.subckt 74S08  A B Y
+	optional: DPWR=$G_DPWR DGND=$G_DGND
+	params: MNTYMXDLY=0 IO_LEVEL=0
U1 and(2) DPWR DGND
+	A B   Y 
+	D_S08 IO_S MNTYMXDLY={MNTYMXDLY} IO_LEVEL={IO_LEVEL} 
.ends
*
.model D_S08 ugate (
+	tplhty=4.5ns	tplhmx=7ns
+	tphlty=5ns	tphlmx=7.5ns
+	)
*$
*---------
* 74S09  Quadruple 2-input Positive-And Gates with Open-Collector Outputs
*
* The TTL Data Book, Vol 2, 1985, TI
* tdn 	06/23/89	Update interface and model names
*
.subckt 74S09  A B Y
+	optional: DPWR=$G_DPWR DGND=$G_DGND
+	params: MNTYMXDLY=0 IO_LEVEL=0
U1 and(2) DPWR DGND
+	A B   Y 
+	D_S09 IO_S_OC MNTYMXDLY={MNTYMXDLY} IO_LEVEL={IO_LEVEL} 
.ends
*
.model D_S09 ugate (
+	tplhty=6.5ns	tplhmx=10ns
+	tphlty=6.5ns	tphlmx=10ns
+	)
*$
*---------
* 74S10  Triple 3-input Positive-Nand Gates
*
* The TTL Data Book, Vol 2, 1985, TI
* tdn	06/23/89	Update interface and model names
*
.subckt 74S10  A B C Y
+	optional: DPWR=$G_DPWR DGND=$G_DGND
+	params: MNTYMXDLY=0 IO_LEVEL=0
U1 nand(3) DPWR DGND
+	A B C   Y 
+	D_S10 IO_S MNTYMXDLY={MNTYMXDLY} IO_LEVEL={IO_LEVEL} 
.ends
*
.model D_S10 ugate (
+	tplhty=3ns	tplhmx=4.5ns
+	tphlty=3ns	tphlmx=5ns
+	)
*$
*---------
* 74S11  Triple 3-input Positive-And Gates
*
* The TTL Data Book, Vol 2, 1985, TI
* tdn 	06/23/89	Update interface and model names
*
.subckt 74S11  A B C Y
+	optional: DPWR=$G_DPWR DGND=$G_DGND
+	params: MNTYMXDLY=0 IO_LEVEL=0
U1 and(3) DPWR DGND
+	A B C   Y 
+	D_S11 IO_S MNTYMXDLY={MNTYMXDLY} IO_LEVEL={IO_LEVEL} 
.ends
*
.model D_S11 ugate (
+	tplhty=4.5ns	tplhmx=7ns
+	tphlty=5ns	tphlmx=7.5ns
+	)
*$
*---------
* 74S15  Triple 3-input Positive-And Gates with Open-Collector Outputs
*
* The TTL Data Book, Vol 2, 1985, TI
* tdn	06/26/89	Update interface and model names
*
.subckt 74S15  A B C Y
+	optional: DPWR=$G_DPWR DGND=$G_DGND
+	params: MNTYMXDLY=0 IO_LEVEL=0
U1 and(3) DPWR DGND
+	A B C   Y 
+	D_S15 IO_S_OC MNTYMXDLY={MNTYMXDLY} IO_LEVEL={IO_LEVEL} 
.ends
*
.model D_S15 ugate (
+	tplhty=5.5ns	tplhmx=8.5ns
+	tphlty=6ns	tphlmx=9ns
+	)
*$
*---------
* 74S20  Dual 4-input Positive-Nand Gates
*
* The TTL Data Book, Vol 2, 1985, TI
* tdn	06/26/89	Update interface and model names
*
.subckt 74S20  A B C D Y
+	optional: DPWR=$G_DPWR DGND=$G_DGND
+	params: MNTYMXDLY=0 IO_LEVEL=0
U1 nand(4) DPWR DGND
+	A B C D   Y 
+	D_S20 IO_S MNTYMXDLY={MNTYMXDLY} IO_LEVEL={IO_LEVEL} 
.ends
*
.model D_S20 ugate (
+	tplhty=3ns	tplhmx=4.5ns
+	tphlty=3ns	tphlmx=5ns
+	)
*$
*---------
* 74S22  Dual 4-input Positive-Nand Gates with Open-Collector Outputs
*
* The TTL Data Book, Vol 2, 1985, TI
* tdn	06/26/89	Update interface and model names
*
.subckt 74S22  A B C D Y
+	optional: DPWR=$G_DPWR DGND=$G_DGND
+	params: MNTYMXDLY=0 IO_LEVEL=0
U1 nand(4) DPWR DGND
+	A B C D   Y 
+	D_S22 IO_S_OC MNTYMXDLY={MNTYMXDLY} IO_LEVEL={IO_LEVEL} 
.ends
*
.model D_S22 ugate (
+	tplhty=5ns	tphlty=4.5ns
+	tplhmn=2ns	tplhmx=7.5ns
+	tphlmn=2ns	tphlmx=7ns
+	)
*$
*---------
* 74S30  8-input Positive-Nand Gates
*
* The TTL Data Book, Vol 2, 1985, TI
* tdn	06/26/89	Update interface and model names
*
.subckt 74S30  A B C D E F G H Y
+	optional: DPWR=$G_DPWR DGND=$G_DGND
+	params: MNTYMXDLY=0 IO_LEVEL=0
U1 nand(8) DPWR DGND
+	A B C D E F G H   Y 
+	D_S30 IO_S MNTYMXDLY={MNTYMXDLY} IO_LEVEL={IO_LEVEL} 
.ends
*
.model D_S30 ugate (
+	tplhty=4ns	tplhmx=6ns
+	tphlty=4.5ns	tphlmx=7ns
+	)
*$
*---------
* 74S32  Quadruple 2-input Positive-Or Gates
*
* The TTL Data Book, Vol 2, 1985, TI
* tdn	06/26/89	Update interface and model names
*
.subckt 74S32  A B Y
+	optional: DPWR=$G_DPWR DGND=$G_DGND
+	params: MNTYMXDLY=0 IO_LEVEL=0
U1 or(2) DPWR DGND
+	A B   Y 
+	D_S32 IO_S MNTYMXDLY={MNTYMXDLY} IO_LEVEL={IO_LEVEL} 
.ends
*
.model D_S32 ugate (
+	tplhty=4ns	tplhmx=7ns
+	tphlty=4ns	tphlmx=7ns
+	)
*$
*---------
* 74S37  Quadruple 2-input Positive-Nand Buffers
*
* The TTL Data Book, Vol 2, 1985, TI
* tdn	06/26/89	Update interface and model names
*
.subckt 74S37  A B Y
+	optional: DPWR=$G_DPWR DGND=$G_DGND
+	params: MNTYMXDLY=0 IO_LEVEL=0
U1 nand(2) DPWR DGND
+	A B   Y 
+	D_S37 IO_S MNTYMXDLY={MNTYMXDLY} IO_LEVEL={IO_LEVEL} 
.ends
*
.model D_S37 ugate (
+	tplhty=4ns	tplhmx=6.5ns
+	tphlty=4ns	tphlmx=6.5ns
+	)
*$
*---------
* 74S38  Quadruple 2-input Positive-Nand Buffers w/ Open-Collector Outputs
* The TTL Data Book, Vol 2, 1985, TI
* tdn	06/26/89	Update interface and model names
*
.subckt 74S38  A B Y
+	optional: DPWR=$G_DPWR DGND=$G_DGND
+	params: MNTYMXDLY=0 IO_LEVEL=0
U1 nand(2) DPWR DGND
+	A B   Y 
+	D_S38 IO_S_OC MNTYMXDLY={MNTYMXDLY} IO_LEVEL={IO_LEVEL} 
.ends
*
.model D_S38 ugate (
+	tplhty=6.5ns	tplhmx=10ns
+	tphlty=6.5ns	tphlmx=10ns
+	)
*$
*---------
* 74S40  Dual 4-input Positive-Nand Buffers
*
* The TTL Data Book, Vol 2, 1985, TI
* tdn	06/26/89	Update interface and model names
*
.subckt 74S40  A B C D Y
+	optional: DPWR=$G_DPWR DGND=$G_DGND
+	params: MNTYMXDLY=0 IO_LEVEL=0
U1 nand(4) DPWR DGND
+	A B C D   Y 
+	D_S40 IO_S MNTYMXDLY={MNTYMXDLY} IO_LEVEL={IO_LEVEL} 
.ends
*
.model D_S40 ugate (
+	tplhty=4ns	tplhmx=6.5ns
+	tphlty=4ns	tphlmx=6.5ns
+	)
*$
*---------
* 74S51  And-Or-Invert Gates
*
* The TTL Data Book, Vol 2, 1985, TI
* tdn	06/27/89	Update interface and model names
*
.subckt 74S51  A B C D Y
+	optional: DPWR=$G_DPWR DGND=$G_DGND
+	params: MNTYMXDLY=0 IO_LEVEL=0
U1 aoi(2,2) DPWR DGND
+	A B C D   Y 
+	D_S51 IO_S MNTYMXDLY={MNTYMXDLY} IO_LEVEL={IO_LEVEL} 
.ends
*
.model D_S51 ugate (
+	tplhty=3.5ns	tplhmx=5.5ns
+	tphlty=3.5ns	tphlmx=5.5ns
+	)
*$
*---------
* 74S64  4-2-3-2 Input And-Or-Invert Gates
*
* The TTL Data Book, Vol 2, 1985, TI
* tdn	06/28/89	Update interface and model names
*
.subckt 74S64  A B C D E F G H I J K Y
+	optional: DPWR=$G_DPWR DGND=$G_DGND
+	params: MNTYMXDLY=0 IO_LEVEL=0
U1 aoi(4,4) DPWR DGND
+	A	B	C	D
+	E	F	$D_HI	$D_HI
+	G	H	I	$D_HI
+	J	K	$D_HI	$D_HI
+	Y
+	D_S64 IO_S MNTYMXDLY={MNTYMXDLY} IO_LEVEL={IO_LEVEL} 
.ends
*
.model D_S64 ugate (
+	tplhty=3.5ns	tplhmx=5.5ns
+	tphlty=3.5ns	tphlmx=5.5ns
+	)
*$
*-------------------------------------------------------------------------
* 74S65  4-2-3-2 Input And-Or-Invert Gates
*
* The TTL Data Book, Vol 2, 1985, TI
* tdn	06/28/89	Update interface and model names
*
.subckt 74S65  A B C D E F G H I J K Y
+	optional: DPWR=$G_DPWR DGND=$G_DGND
+	params: MNTYMXDLY=0 IO_LEVEL=0
U1 aoi(4,4) DPWR DGND
+	A	B	C	D
+	E	F	$D_HI	$D_HI
+	G	H	I	$D_HI
+	J	K	$D_HI	$D_HI
+	Y
+	D_S65 IO_S_OC MNTYMXDLY={MNTYMXDLY} IO_LEVEL={IO_LEVEL} 
.ends
*
.model D_S65 ugate (
+	tplhty=2ns	tplhmx=7.5ns
+	tphlty=2ns	tphlmx=8.5ns
+	)
*
*$
*---------
* 74S74  Dual D-Type Positive-Edge-Triggered Flip-Flops w/ Preset and Clear
*
* The TTL Data Book, Vol 2, 1985, TI
* tdn	06/28/89	Update interface and model names
*
.subckt 74S74  1CLRBAR 1D 1CLK 1PREBAR 1Q 1QBAR
+	optional: DPWR=$G_DPWR DGND=$G_DGND
+	params: MNTYMXDLY=0 IO_LEVEL=0
UFF1 dff(1) DPWR DGND
+	1PREBAR 1CLRBAR 1CLK   1D   1Q 1QBAR 
+	D_S74 IO_S MNTYMXDLY={MNTYMXDLY} IO_LEVEL={IO_LEVEL} 
.ends
*
.model D_S74 ueff (
+	twpclmn=7ns	twclklmn=7.3ns
+	twclkhmn=6ns	tsudclkmn=3ns
+	thdclkmn=2ns	tppcqlhty=4ns
+	tppcqlhmx=6ns	tppcqhlty=9ns
+	tppcqhlmx=13.5ns	tpclkqlhty=6ns
+	tpclkqlhmx=9ns	tpclkqhlty=6ns
+	tpclkqhlmx=9ns
+	)
*$
*---------
* 74S85 4-BIT MAGNITUDE COMPARATOR
*
* THE TTL LOGIC STANDARD TTL, SCHOTTKY, LOW-POWER SCHOTTKY DATABOOK, 1988, TI
* KN   8-20-92      REMODELED USING LOGICEXP, PINDLY, CONSTRAINT DEVICES
*
.SUBCKT 74S85 A3_I A2_I A1_I A0_I B3_I B2_I B1_I B0_I
+ AGBIN_I AEBIN_I ALBIN_I AGBOUT_O AEBOUT_O ALBOUT_O
+ OPTIONAL: DPWR=$G_DPWR DGND=$G_DGND
+ PARAMS: MNTYMXDLY=0 IO_LEVEL=0
*
US85LOG LOGICEXP(11,14) DPWR DGND
+ A3_I A2_I A1_I A0_I B3_I B2_I B1_I B0_I AGBIN_I AEBIN_I ALBIN_I
+ A3   A2   A1   A0   B3   B2   B1   B0   AGBIN   AEBIN   ALBIN
+ AGBOUT AEBOUT ALBOUT
+ D0_GATE
+ IO_S IO_LEVEL={IO_LEVEL}
+
+ LOGIC:
*   BUFFER:
+   A3     = { A3_I }
+   A2     = { A2_I }
+   A1     = { A1_I }
+   A0     = { A0_I }
+   B3     = { B3_I }
+   B2     = { B2_I }
+   B1     = { B1_I }
+   B0     = { B0_I }
+   AGBIN  = { AGBIN_I }
+   AEBIN  = { AEBIN_I }
+   ALBIN  = { ALBIN_I }
+
*   INTERMEDIATE TERMS:
+   C3     = { ~(A3 & B3) }
+   C2     = { ~(A2 & B2) }
+   C1     = { ~(A1 & B1) }
+   C0     = { ~(A0 & B0) }
+   A3C3    = { A3 & C3 }
+   A2C2    = { A2 & C2 }
+   A1C1    = { A1 & C1 }
+   A0C0    = { A0 & C0 }
+   B3C3    = { B3 & C3 }
+   B2C2    = { B2 & C2 }
+   B1C1    = { B1 & C1 }
+   B0C0    = { B0 & C0 }
+   D3      = { ~(A3C3 | B3C3) }
+   D2      = { ~(A2C2 | B2C2) }
+   D1      = { ~(A1C1 | B1C1) }
+   D0      = { ~(A0C0 | B0C0) }
+   D32     = { D3 & D2 }
+   D31     = { D32 & D1 }
+   D30     = { D31 & D0 }
+
*   OUTPUT ASSIGNMENTS:
+   AGBOUT  = { ~B3C3 &  ~(B2C2 & D3) & ~(B1C1 & D32) & ~(B0C0 & D31) &
+               ~(ALBIN & D30) & ~(AEBIN & D30) }
+   AEBOUT  = { D30 & AEBIN }
+   ALBOUT  = { ~(AEBIN & D30) & ~(AGBIN & D30) & ~(A0C0 & D31) &
+               ~(A1C1 & D32)  & ~(A2C2 & D3)   & ~A3C3 }
*
US85DLY PINDLY (3,0,11) DPWR DGND
+ AGBOUT AEBOUT ALBOUT
+ A3 A2 A1 A0 B3 B2 B1 B0 AGBIN AEBIN ALBIN
+ AGBOUT_O AEBOUT_O ALBOUT_O
+ IO_S MNTYMXDLY={MNTYMXDLY} IO_LEVEL={IO_LEVEL}
+
+ BOOLEAN:
+  DATA_CHANGE = { CHANGED(A3,0) | CHANGED(A2,0) | CHANGED(A1,0) | CHANGED(A0,0)
+              | CHANGED(B3,0) | CHANGED(B2,0) | CHANGED(B1,0) | CHANGED(B0,0) }
+  AEBIN_CHANGE = { CHANGED(AEBIN,0) }
+  ABIN_CHANGE  = { AEBIN_CHANGE | CHANGED(ALBIN,0) | CHANGED(AGBIN,0) }
+
+ PINDLY:
+   AGBOUT_O ALBOUT_O = { ;AGBOUT & ALBOUT HAS THE SAME DELAY SO CAN BE GROUPPED
+     CASE(
+       DATA_CHANGE & TRN_HL,  DELAY(-1,11NS,16.5NS),
+       DATA_CHANGE & TRN_LH,  DELAY(-1,10.5NS,16NS),
+       ABIN_CHANGE  & TRN_HL, DELAY(-1,5.5NS,8.5NS),
+       ABIN_CHANGE  & TRN_LH, DELAY(-1,5NS,7.5NS),
+                              DELAY(-1,12NS,17NS)  ;DEFAULT
+     )
+   }
+   AEBOUT_O = {
+     CASE(
+       DATA_CHANGE  & TRN_LH, DELAY(-1,12NS,18NS),
+       DATA_CHANGE  & TRN_HL, DELAY(-1,11NS,16.5NS),
+       AEBIN_CHANGE & TRN_LH, DELAY(-1,7NS,10.5NS),
+       AEBIN_CHANGE & TRN_HL, DELAY(-1,5NS,7.5NS),
+                              DELAY(-1,13NS,19NS)  ;DEFAULT
+     )
+   }
*
.ENDS
*
*$
*---------
* 74S86  Quadruple 2-input Exclusive-Or Gates
*
* The TTL Data Book, Vol 2, 1985, TI
* tdn	06/29/89	Update interface and model names
*
.subckt 74S86  A B Y
+	optional: DPWR=$G_DPWR DGND=$G_DGND
+	params: MNTYMXDLY=0 IO_LEVEL=0
U1 xor DPWR DGND
+	A B   Y 
+	D_S86 IO_S MNTYMXDLY={MNTYMXDLY} IO_LEVEL={IO_LEVEL} 
.ends
*
.model D_S86 ugate (
+	tplhty=7ns	tplhmx=10.5ns
+	tphlty=6.5ns	tphlmx=10ns
+	)
*$
*---------
* 74S109  Dual J-KBar Positive-Edge-Triggered Flip-Flops w/ Set & Reset    
*
* Fairchild Semiconductor Corp., 1978
* cv	08/20/90	Created from LS
*
.subckt 74S109  CP SDBAR CDBAR J KBAR Q QBAR
+	optional: DPWR=$G_DPWR DGND=$G_DGND
+	params: MNTYMXDLY=0 IO_LEVEL=0
U1 jkff(1) DPWR DGND
+	SDBAR CDBAR CPBAR   J K   Q QBAR 
+	D_S109 IO_S MNTYMXDLY={MNTYMXDLY} IO_LEVEL={IO_LEVEL} 
U2 inva(2) DPWR DGND
+	KBAR CP   K CPBAR 
+	D0_GATE IO_S IO_LEVEL={IO_LEVEL} 
.ends
*
.model D_S109 ueff (
+	tppcqlhmx=6ns	tppcqhlmx=12ns
+	tpclkqlhmx=9ns	tpclkqhlmx=11ns
+	twclkhmn=7ns	twclklmn=6.5ns
+	twpclmn=6ns	tsudclkmn=6ns
+	thdclkmn=0ns
+	)
*$
*---------	 
* 74S112  Dual J-K Negative-Edge-Triggered Flip-Flops with Preset & Clear
*
* The TTL Data Book, Vol 2, 1985, TI
* tdn	07/05/89	Update interface and model names
* muw   03/13/90        Correct timing - Data book has LS and S timing reversed
*
.subckt 74S112  CLK PREBAR CLRBAR J K Q QBAR
+	optional: DPWR=$G_DPWR DGND=$G_DGND
+	params: MNTYMXDLY=0 IO_LEVEL=0
U1 jkff(1) DPWR DGND
+	PREBAR CLRBAR CLK   J K   Q QBAR 
+	D_S112 IO_S MNTYMXDLY={MNTYMXDLY} IO_LEVEL={IO_LEVEL} 
.ends
*
.model D_S112 ueff (
+	tppcqlhty=4ns	tppcqlhmx=7ns
+	tppcqhlty=5ns	tppcqhlmx=7ns
+	tpclkqlhty=4ns	tpclkqlhmx=7ns
+	tpclkqhlty=5ns	tpclkqhlmx=7ns
+	twclkhmx=6ns	twclkhty=6ns
+	twclklmx=6.5ns	twclklty=6.5ns
+	twpclmx=8ns	twpclty=8ns
+	tsudclkmx=3ns	tsudclkty=3ns
+	)
*$
*---------	 
* 74S113  Dual J-K Negative-Edge-Triggered Flip-Flops with Preset
*
* The TTL Data Book, Vol 2, 1985, TI
* tdn	07/05/89	Update interface and model names
*
.subckt 74S113  CLK PREBAR J K Q QBAR
+	optional: DPWR=$G_DPWR DGND=$G_DGND
+	params: MNTYMXDLY=0 IO_LEVEL=0
U1 jkff(1) DPWR DGND
+	PREBAR $D_HI CLK   J K   Q QBAR 
+	D_S113 IO_S MNTYMXDLY={MNTYMXDLY} IO_LEVEL={IO_LEVEL} 
.ends
*
.model D_S113 ueff (
+	tppcqlhty=4ns	tppcqlhmx=7ns
+	tppcqhlty=5ns	tppcqhlmx=7ns
+	tpclkqlhty=4ns	tpclkqlhmx=7ns
+	tpclkqhlty=5ns	tpclkqhlmx=7ns
+	twclkhmx=6ns	twclkhty=6ns
+	twclklmx=6.5ns	twclklty=6.5ns
+	twpclmx=8ns	twpclty=8ns
+	tsudclkmx=3ns	tsudclkmn=3ns
+	)
*$
*---------	 
* 74S114  Dual J-K Negative-Edge-Triggered Flip-Flops with Preset & Common Clear, & Common Clock
*
* The TTL Data Book, Vol 2, 1985, TI
* tdn	07/05/89	Update interface and model names
*
.subckt 74S114  CLK CLRBAR 1PREBAR 1J 1K 1Q 1QBAR 2PREBAR 2J 2K 2Q 2QBAR
+	optional: DPWR=$G_DPWR DGND=$G_DGND
+	params: MNTYMXDLY=0 IO_LEVEL=0
UIBUF bufa(4) DPWR DGND
+	CLK CLRBAR 1PREBAR 2PREBAR   CLK_BUF CLRBAR_BUF 1PREB 2PREB 
+	D0_GATE IO_S IO_LEVEL={IO_LEVEL} 
U1 jkff(1) DPWR DGND
+	1PREB CLRBAR_BUF CLK_BUF   1J 1K   1Q 1QBAR 
+	D_S114 IO_S MNTYMXDLY={MNTYMXDLY} IO_LEVEL={IO_LEVEL} 
U2 jkff(1) DPWR DGND
+	2PREB CLRBAR_BUF CLK_BUF   2J 2K   2Q 2QBAR 
+	D_S114 IO_S MNTYMXDLY={MNTYMXDLY} IO_LEVEL={IO_LEVEL} 
.ends
*
.model D_S114 ueff (
+	tppcqlhty=4ns	tppcqlhmx=7ns
+	tppcqhlty=5ns	tppcqhlmx=7ns
+	tpclkqlhty=4ns	tpclkqlhmx=7ns
+	tpclkqhlty=5ns	tpclkqhlmx=7ns
+	twclkhmx=6ns	twclkhty=6ns
+	twpclmx=6.5ns	twpclty=6.5ns
+	tsudclkmx=3ns	tsudclkty=3ns
+	)
*$
*---------
* 74S132  Quadruple 2-input Positive-Nand Schmitt Triggers
*
* The TTL Data Book, Vol 2, 1985, TI
* tdn	07/05/89	Update interface and model names
*
.subckt 74S132  A B Y
+	optional: DPWR=$G_DPWR DGND=$G_DGND
+	params: MNTYMXDLY=0 IO_LEVEL=0
* Note: These devices are modeled as simple Nand gates.
*       Hysteresis is modeled by the AtoD interface.
*
U1 nand(2) DPWR DGND
+	A B   Y 
+	D_S132 IO_S_ST MNTYMXDLY={MNTYMXDLY} IO_LEVEL={IO_LEVEL} 
.ends
*
.model D_S132 ugate (
+	tplhty=7ns	tplhmx=10.5ns
+	tphlty=8.5ns	tphlmx=13ns
+	)
*$
*---------
* 74S133  13-input Positive-Nand Gates
*
* The TTL Data Book, Vol 2, 1985, TI
* tdn	07/05/89	Update interface and model names
*
.subckt 74S133  A B C D E F G H I J K L M Y
+	optional: DPWR=$G_DPWR DGND=$G_DGND
+	params: MNTYMXDLY=0 IO_LEVEL=0
U1 nand(13) DPWR DGND
+	A	B	C	D	E	F	G	H	I
+	J	K	L	M
+	Y
+	D_S133 IO_S MNTYMXDLY={MNTYMXDLY} IO_LEVEL={IO_LEVEL} 
.ends
*
.model D_S133 ugate (
+	tplhty=4ns	tplhmx=6ns
+	tphlty=4.5ns	tphlmx=7ns
+	)
*$
*-------------------------------------------------------------------------
* 74S134  12-input Positive-Nand Gates with 3-state Outputs
*
* The TTL Data Book, Vol 2, 1985, TI
* tdn	07/05/89	Update interface and model names
*
.subckt 74S134  A B C D E F G H I J K L OCBAR Y
+	optional: DPWR=$G_DPWR DGND=$G_DGND
+	params: MNTYMXDLY=0 IO_LEVEL=0
U1 nand3(12) DPWR DGND
+	A	B	C	D	E	F
+	G	H	I	J	K	L
+	OC
+	Y
+	D_S134 IO_S MNTYMXDLY={MNTYMXDLY} IO_LEVEL={IO_LEVEL} 
U2 inv DPWR DGND
+	OCBAR   OC 
+	D0_GATE IO_S IO_LEVEL={IO_LEVEL} 
.ends
*
.model D_S134 utgate (
+	tplhty=4ns	tplhmx=6ns
+	tphlty=5ns	tphlmx=7.5ns
+	tpzhty=13ns	tpzhmx=19.5ns
+	tpzlty=14ns	tpzlmx=21ns
+	tphzty=5.5ns	tphzmx=8.5ns
+	tplzty=9ns	tplzmx=14ns
+	)
*$
*-------------------------------------------------------------------------
* 74S135  Quadruple Exclusive-Or/Nor Gates     
*
* The TTL Data Book, Vol 2, 1985, TI
* tdn	07/05/89	Update interface and model names
*
.subckt 74S135  1A 1B 2A 2B C 1Y 2Y
+	optional: DPWR=$G_DPWR DGND=$G_DGND
+	params: MNTYMXDLY=0 IO_LEVEL=0
* Note: The actual 74S135 device contains two independent circuits.  This
*	subcircuit models only one of these.
*
UIBUF bufa(5) DPWR DGND
+	C	1A	1B	2A	2B
+	C_BUF	1A_BUF	1B_BUF	2A_BUF	2B_BUF
+	D0_GATE IO_S IO_LEVEL={IO_LEVEL} 
X1  1A_BUF 1B_BUF C_BUF 1Y  DPWR DGND  SECT135
+	params: MNTYMXDLY={MNTYMXDLY} IO_LEVEL={IO_LEVEL}
X2  2A_BUF 2B_BUF C_BUF 2Y  DPWR DGND  SECT135
+	params: MNTYMXDLY={MNTYMXDLY} IO_LEVEL={IO_LEVEL}
.ends 74S135
*
.subckt SECT135  A B C Y DPWR DGND
+	params: MNTYMXDLY=0 IO_LEVEL=0
X1  A B D  DPWR DGND  GA135S
+	params: MNTYMXDLY={MNTYMXDLY} IO_LEVEL={IO_LEVEL}
X2  A B G  DPWR DGND  GB135S
+	params: MNTYMXDLY={MNTYMXDLY} IO_LEVEL={IO_LEVEL}
X3  E J Y  DPWR DGND  GC135S
+	params: MNTYMXDLY={MNTYMXDLY} IO_LEVEL={IO_LEVEL}
U1 buf DPWR DGND
+	C   E 
+	D_S135_1 IO_S MNTYMXDLY={MNTYMXDLY} 
U2 inv DPWR DGND
+	E   F 
+	D0_GATE IO_S 
U3 ao(2,2) DPWR DGND
+	D F E G   J 
+	D0_GATE IO_S 
.ends SECT135
*
.subckt GA135S  A B Y DPWR DGND
+	params: MNTYMXDLY=0 IO_LEVEL=0
U1 or(2) DPWR DGND
+	A B   C 
+	D_S135_2 IO_S MNTYMXDLY={MNTYMXDLY} 
U2 nand(2) DPWR DGND
+	A B   D 
+	D_S135_3 IO_S MNTYMXDLY={MNTYMXDLY} 
U3 and(2) DPWR DGND
+	C D   Y 
+	D_S135_4 IO_S MNTYMXDLY={MNTYMXDLY} 
.ends GA135S
*
.subckt GB135S  A B Y DPWR DGND
+	params: MNTYMXDLY=0 IO_LEVEL=0
U1 or(2) DPWR DGND
+	A B   C 
+	D_S135_5 IO_S MNTYMXDLY={MNTYMXDLY} 
U2 nand(2) DPWR DGND
+	A B   D 
+	D_S135_6 IO_S MNTYMXDLY={MNTYMXDLY} 
U3 and(2) DPWR DGND
+	C D   Y 
+	D_S135_7 IO_S MNTYMXDLY={MNTYMXDLY} 
.ends GB135S
*
.subckt GC135S  A B Y DPWR DGND
+	params: MNTYMXDLY=0 IO_LEVEL=0
U1 or(2) DPWR DGND
+	A B   C 
+	D_S135_8 IO_S MNTYMXDLY={MNTYMXDLY} 
U2 nand(2) DPWR DGND
+	A B   D 
+	D_S135_9 IO_S MNTYMXDLY={MNTYMXDLY} 
U3 and(2) DPWR DGND
+	C D   Y 
+	D_S135_10 IO_S MNTYMXDLY={MNTYMXDLY} IO_LEVEL={IO_LEVEL} 
.ends GC135S
*
.model D_S135_1 ugate (
+	tplhty=6ns	tplhmx=6ns
+	tphlty=6ns	tphlmx=6ns
+	)
.model D_S135_2 ugate (
+	tplhty=6.5ns	tplhmx=7ns
+	tphlty=2ns	tphlmx=1.5ns
+	)
.model D_S135_3 ugate (
+	tplhty=6ns	tplhmx=6ns
+	)
.model D_S135_4 ugate (
+	tphlty=5.5ns	tphlmx=5ns
+	)
.model D_S135_5 ugate (
+	tplhty=4.5ns	tplhmx=4ns
+	tphlty=1.5ns	tphlmx=3ns
+	)
.model D_S135_6 ugate (
+	tplhty=5ns	tplhmx=7ns
+	)
.model D_S135_7 ugate (
+	tphlty=7ns	tphlmx=6.5ns
+	)
.model D_S135_8 ugate (
+	tplhty=2ns	tplhmx=6ns
+	tphlty=1.5ns	tphlmx=2.5ns
+	)
.model D_S135_9 ugate (
+	tplhty=1.5ns	tplhmx=5.5ns
+	)
.model D_S135_10 ugate (
+	tphlty=2ns	tphlmx=6ns
+	)
*$
*---------
* 74S138A  DECODER/DEMULTIPLEXER 3-8 LINE
*
* TTL LOGIC STANDARD TTL, S, LS DATA BOOK, APR 1988, TI
* JLS   8-4-92   REMODELED USING LOGICEXP, PINDLY, AND CONSTRAINT DEVICES
*    
.SUBCKT 74S138A   G1_I G2ABAR_I G2BBAR_I A_I B_I C_I
+ Y0_O Y1_O Y2_O Y3_O Y4_O Y5_O Y6_O Y7_O
+ OPTIONAL: DPWR=$G_DPWR DGND=$G_DGND
+ PARAMS: MNTYMXDLY=0 IO_LEVEL=0
*
US138LOG LOGICEXP (6,15) DPWR DGND
+ G1_I G2ABAR_I G2BBAR_I A_I B_I C_I
+ G1   G2ABAR   G2BBAR   A   B   C   ENABLE
+ Y0 Y1 Y2 Y3 Y4 Y5 Y6 Y7
+ D0_GATE IO_S
+ IO_LEVEL={IO_LEVEL}
+
+ LOGIC:
+   G1     = { G1_I }
+   G2ABAR = { G2ABAR_I }
+   G2BBAR = { G2BBAR_I }
+   A      = { A_I }
+   B      = { B_I }
+   C      = { C_I }
+   ABAR   = { ~A }
+   BBAR   = { ~B }
+   CBAR   = { ~C }
+   ENABLE = { ~G2ABAR & ~G2BBAR & G1 }
+   Y0     = { ~(ENABLE & CBAR & BBAR & ABAR) }
+   Y1     = { ~(ENABLE & CBAR & BBAR & A   ) }
+   Y2     = { ~(ENABLE & CBAR & B    & ABAR) }
+   Y3     = { ~(ENABLE & CBAR & B    & A   ) }
+   Y4     = { ~(ENABLE & C    & BBAR & ABAR) }
+   Y5     = { ~(ENABLE & C    & BBAR & A   ) }
+   Y6     = { ~(ENABLE & C    & B    & ABAR) }
+   Y7     = { ~(ENABLE & C    & B    & A   ) }
*
US138DLY PINDLY (8,0,7) DPWR DGND
+ Y0 Y1 Y2 Y3 Y4 Y5 Y6 Y7
+ ENABLE G1 G2ABAR G2BBAR A B C
+ Y0_O Y1_O Y2_O Y3_O Y4_O Y5_O Y6_O Y7_O
+ IO_S
+ MNTYMXDLY={MNTYMXDLY} IO_LEVEL={IO_LEVEL}
+
+ BOOLEAN:
+   ABLE1 = { CHANGED(ENABLE,0) &  CHANGED(G1,0) }
+   ABLE2 = { CHANGED(ENABLE,0) & (CHANGED(G2ABAR,0) | CHANGED(G2BBAR,0)) }
+   ADDRA = { CHANGED(A,0) }
+   ADDRB = { CHANGED(B,0) }
+   ADDRC = { CHANGED(C,0) }
+   ADDR  = { CHANGED(A,0) | CHANGED(B,0) | CHANGED(C,0) }
+
+ PINDLY:
+   Y0_O = {
+     CASE (
+       ADDR  & TRN_LH, DELAY(-1,4.5NS, 7.0NS),
+       ADDR  & TRN_HL, DELAY(-1,7.0NS,10.5NS),
+       ABLE1         , DELAY(-1,7.0NS,11.0NS),
+       ABLE2 & TRN_LH, DELAY(-1,5.0NS, 8.0NS),
+       ABLE2 & TRN_HL, DELAY(-1,7.0NS,11.0NS),
+       DELAY(-1,7.0NS,11.0NS)
+       )
+     }
+   Y1_O = {
+     CASE (
+       ADDRA & TRN_LH, DELAY(-1,7.5NS,12.0NS),
+       ADDRA & TRN_HL, DELAY(-1,8.0NS,12.0NS),
+       ADDR  & TRN_LH, DELAY(-1,4.5NS, 7.0NS),
+       ADDR  & TRN_HL, DELAY(-1,7.0NS,10.5NS),
+       ABLE1         , DELAY(-1,7.0NS,11.0NS),
+       ABLE2 & TRN_LH, DELAY(-1,5.0NS, 8.0NS),
+       ABLE2 & TRN_HL, DELAY(-1,7.0NS,11.0NS),
+       DELAY(-1,8.0NS,12.0NS)
+       )
+     }
+   Y2_O = {
+     CASE (
+       ADDRB & TRN_LH, DELAY(-1,7.5NS,12.0NS),
+       ADDRB & TRN_HL, DELAY(-1,8.0NS,12.0NS),
+       ADDR  & TRN_LH, DELAY(-1,4.5NS, 7.0NS),
+       ADDR  & TRN_HL, DELAY(-1,7.0NS,10.5NS),
+       ABLE1         , DELAY(-1,7.0NS,11.0NS),
+       ABLE2 & TRN_LH, DELAY(-1,5.0NS, 8.0NS),
+       ABLE2 & TRN_HL, DELAY(-1,7.0NS,11.0NS),
+       DELAY(-1,8.0NS,12.0NS)
+       )
+     }
+   Y3_O = {
+     CASE (
+       ADDRA & TRN_LH, DELAY(-1,7.5NS,12.0NS),
+       ADDRA & TRN_HL, DELAY(-1,8.0NS,12.0NS),
+       ADDRB & TRN_LH, DELAY(-1,7.5NS,12.0NS),
+       ADDRB & TRN_HL, DELAY(-1,8.0NS,12.0NS),
+       ADDR  & TRN_LH, DELAY(-1,4.5NS, 7.0NS),
+       ADDR  & TRN_HL, DELAY(-1,7.0NS,10.5NS),
+       ABLE1         , DELAY(-1,7.0NS,11.0NS),
+       ABLE2 & TRN_LH, DELAY(-1,5.0NS, 8.0NS),
+       ABLE2 & TRN_HL, DELAY(-1,7.0NS,11.0NS),
+       DELAY(-1,8.0NS,12.0NS)
+       )
+     }
+   Y4_O = {
+     CASE (
+       ADDRC & TRN_LH, DELAY(-1,7.5NS,12.0NS),
+       ADDRC & TRN_HL, DELAY(-1,8.0NS,12.0NS),
+       ADDR  & TRN_LH, DELAY(-1,4.5NS, 7.0NS),
+       ADDR  & TRN_HL, DELAY(-1,7.0NS,10.5NS),
+       ABLE1         , DELAY(-1,7.0NS,11.0NS),
+       ABLE2 & TRN_LH, DELAY(-1,5.0NS, 8.0NS),
+       ABLE2 & TRN_HL, DELAY(-1,7.0NS,11.0NS),
+       DELAY(-1,8.0NS,12.0NS)
+       )
+     }
+   Y5_O = {
+     CASE (
+       ADDRA & TRN_LH, DELAY(-1,7.5NS,12.0NS),
+       ADDRA & TRN_HL, DELAY(-1,8.0NS,12.0NS),
+       ADDRC & TRN_LH, DELAY(-1,7.5NS,12.0NS),
+       ADDRC & TRN_HL, DELAY(-1,8.0NS,12.0NS),
+       ADDR  & TRN_LH, DELAY(-1,4.5NS, 7.0NS),
+       ADDR  & TRN_HL, DELAY(-1,7.0NS,10.5NS),
+       ABLE1         , DELAY(-1,7.0NS,11.0NS),
+       ABLE2 & TRN_LH, DELAY(-1,5.0NS, 8.0NS),
+       ABLE2 & TRN_HL, DELAY(-1,7.0NS,11.0NS),
+       DELAY(-1,8.0NS,12.0NS)
+       )
+     }
+   Y6_O = {
+     CASE (
+       ADDRB & TRN_LH, DELAY(-1,7.5NS,12.0NS),
+       ADDRB & TRN_HL, DELAY(-1,8.0NS,12.0NS),
+       ADDRC & TRN_LH, DELAY(-1,7.5NS,12.0NS),
+       ADDRC & TRN_HL, DELAY(-1,8.0NS,12.0NS),
+       ADDR  & TRN_LH, DELAY(-1,4.5NS, 7.0NS),
+       ADDR  & TRN_HL, DELAY(-1,7.0NS,10.5NS),
+       ABLE1         , DELAY(-1,7.0NS,11.0NS),
+       ABLE2 & TRN_LH, DELAY(-1,5.0NS, 8.0NS),
+       ABLE2 & TRN_HL, DELAY(-1,7.0NS,11.0NS),
+       DELAY(-1,8.0NS,12.0NS)
+       )
+     }
+   Y7_O = {
+     CASE (
+       ADDR  & TRN_LH, DELAY(-1,7.5NS,12.0NS),
+       ADDR  & TRN_HL, DELAY(-1,8.0NS,12.0NS),
+       ABLE1         , DELAY(-1,7.0NS,11.0NS),
+       ABLE2 & TRN_LH, DELAY(-1,5.0NS, 8.0NS),
+       ABLE2 & TRN_HL, DELAY(-1,7.0NS,11.0NS),
+       DELAY(-1,8.0NS,12.0NS)
+       )
+     }
*
.ENDS
*
*$
*--------
* 74S139A  DECODER/DEMULTIPLEXER 2-4 LINE
*
* TTL LOGIC STANDARD TTL, S, LS DATA BOOK, APR 1988, TI
* JLS   8-1-92   REMODELED USING LOGICEXP, PINDLY, AND CONSTRAINT DEVICES
*    
.SUBCKT 74S139A   GBAR_I A_I B_I   Y0_O Y1_O Y2_O Y3_O
+ OPTIONAL: DPWR=$G_DPWR DGND=$G_DGND
+ PARAMS: MNTYMXDLY=0 IO_LEVEL=0
*
US139LOG LOGICEXP (3,7) DPWR DGND
+ GBAR_I A_I B_I
+ GBAR   A   B
+ Y0 Y1 Y2 Y3
+ D0_GATE IO_S
+ IO_LEVEL={IO_LEVEL}
+
+ LOGIC:
+   GBAR   = { GBAR_I }
+   A      = { A_I }
+   B      = { B_I }
+   ABAR   = { ~A }
+   BBAR   = { ~B }
+   ENABLE = { ~GBAR }
+   Y0     = { ~(ENABLE & BBAR & ABAR ) }
+   Y1     = { ~(ENABLE & BBAR & A    ) }
+   Y2     = { ~(ENABLE & B    & ABAR ) }
+   Y3     = { ~(ENABLE & B    & A    ) }
*
US139DLY PINDLY (4,0,3) DPWR DGND
+ Y0 Y1 Y2 Y3
+ GBAR A B
+ Y0_O Y1_O Y2_O Y3_O
+ IO_S
+ MNTYMXDLY={MNTYMXDLY} IO_LEVEL={IO_LEVEL}
+
+ BOOLEAN:
+   ABLE  = { CHANGED(GBAR,0) }
+   ADDR  = { CHANGED(A,0) | CHANGED(B,0) }
+   ADDRA = { CHANGED(A,0) }
+   ADDRB = { CHANGED(B,0) }
+
+ PINDLY:
+   Y0_O = {
+     CASE (
+       ADDR & TRN_LH, DELAY(-1,5.0NS, 7.5NS),
+       ABLE & TRN_LH, DELAY(-1,5.0NS, 8.0NS),
+       ABLE & TRN_HL, DELAY(-1,6.5NS,10.0NS),
+       ADDR & TRN_HL, DELAY(-1,6.5NS,10.0NS),
+       DELAY(-1,6.5NS,10.0NS)
+       )
+     }
+   Y1_O = {
+     CASE (
+       ADDRB & TRN_LH, DELAY(-1,5.0NS, 7.5NS),
+       ABLE  & TRN_LH, DELAY(-1,5.0NS, 8.0NS),
+       ABLE  & TRN_HL, DELAY(-1,6.5NS,10.0NS),
+       ADDRB & TRN_HL, DELAY(-1,6.5NS,10.0NS),
+       ADDRA & TRN_LH, DELAY(-1,7.0NS,12.0NS),
+       ADDRA & TRN_HL, DELAY(-1,8.0NS,12.0NS),
+       DELAY(-1,8.0NS,12.0NS)
+       )
+     }
+   Y2_O = {
+     CASE (
+       ADDRA & TRN_LH, DELAY(-1,5.0NS, 7.5NS),
+       ABLE  & TRN_LH, DELAY(-1,5.0NS, 8.0NS),
+       ABLE  & TRN_HL, DELAY(-1,6.5NS,10.0NS),
+       ADDRA & TRN_HL, DELAY(-1,6.5NS,10.0NS),
+       ADDRB & TRN_LH, DELAY(-1,7.0NS,12.0NS),
+       ADDRB & TRN_HL, DELAY(-1,8.0NS,12.0NS),
+       DELAY(-1,8.0NS,12.0NS)
+       )
+     }
+   Y3_O = {
+     CASE (
+       ABLE & TRN_LH, DELAY(-1,5.0NS, 8.0NS),
+       ABLE & TRN_HL, DELAY(-1,6.5NS,10.0NS),
+       ADDR & TRN_LH, DELAY(-1,7.0NS,12.0NS),
+       ADDR & TRN_HL, DELAY(-1,8.0NS,12.0NS),
+       DELAY(-1,8.0NS,12.0NS)
+       )
+     }
*
.ENDS
*
*$
*-------------------------------------------------------------------------
* 54S140  Dual 4-input Positive-Nand 50-Ohm Line Drivers
*
* Texas Instruments, 1988
* cv	08/20/90	
* jgt   05/27/93 - Changed to use IO_S_50 model
*
.subckt 54S140  A B C D Y
+	optional: DPWR=$G_DPWR DGND=$G_DGND
+	params: MNTYMXDLY=0 IO_LEVEL=0
U1 nand(4) DPWR DGND
+	A B C D   Y 
+	D_54S140 IO_S_50 MNTYMXDLY={MNTYMXDLY} IO_LEVEL={IO_LEVEL} 
.ends
*
.model D_54S140 ugate (
+	tplhty=4ns	tplhmx=6.5ns
+	tphlty=4ns	tphlmx=6.5ns
+	)
*$
*---------
* 74S140  Dual 4-input Positive-Nand 50-Ohm Line Drivers
*
* The TTL Data Book, Vol 2, 1985, TI
* tdn	07/05/89	Update interface and model names
* jgt   05/27/93      - Changed to use IO_S_50 model
*
.subckt 74S140  A B C D Y
+	optional: DPWR=$G_DPWR DGND=$G_DGND
+	params: MNTYMXDLY=0 IO_LEVEL=0
U1 nand(4) DPWR DGND
+	A B C D   Y 
+	D_74S140 IO_S_50 MNTYMXDLY={MNTYMXDLY} IO_LEVEL={IO_LEVEL} 
.ends
*
.model D_74S140 ugate (
+	tplhty=4ns	tplhmx=6.5ns
+	tphlty=4ns	tphlmx=6.5ns
+	)
*
*$
*---------
* 74S151  MULTIPLEXER/DATA SELECTOR 8-1 LINE
*
* THE TTL DATA BOOK, 1988, TI
* TC  08/20/92  REMODELED USING LOGICEXP, PINDLY, & CONSTRAINT DEVICES
*
.SUBCKT 74S151 GBAR_I A_I B_I C_I D0_I D1_I D2_I D3_I D4_I D5_I D6_I D7_I
+ Y_O W_O
+ OPTIONAL: DPWR=$G_DPWR DGND=$G_DGND
+ PARAMS: MNTYMXDLY=0 IO_LEVEL=0
*
US151LOG LOGICEXP(12,14) DPWR DGND
+ GBAR_I A_I B_I C_I D0_I D1_I D2_I D3_I D4_I D5_I D6_I D7_I
+ GBAR A B C D0 D1 D2 D3 D4 D5 D6 D7 W Y
+ D0_GATE IO_S IO_LEVEL={IO_LEVEL}
+ LOGIC:
+   GBAR = { GBAR_I }
+   A = { A_I }
+   B = { B_I }
+   C = { C_I }
+   D0 = { D0_I }
+   D1 = { D1_I }
+   D2 = { D2_I }
+   D3 = { D3_I }
+   D4 = { D4_I }
+   D5 = { D5_I }
+   D6 = { D6_I }
+   D7 = { D7_I }
+   IA = { ~A }
+   IB = { ~B }
+   IC = { ~C }
+   IG = { ~GBAR }
+   ID0 = { D0 & IA & IB & IC & IG }
+   ID1 = { D1 & A & IB & IC & IG }
+   ID2 = { D2 & IA & B & IC & IG }
+   ID3 = { D3 & A & B & IC & IG }
+   ID4 = { D4 & IA & IB & C & IG }
+   ID5 = { D5 & A & IB & C & IG }
+   ID6 = { D6 & IA & B & C & IG }
+   ID7 = { D7 & A & B & C & IG }
+   W = { ~(ID0 | ID1 | ID2 | ID3 | ID4 | ID5 | ID6 | ID7) }
+   Y = { ~W }
*
US151DLY PINDLY (2,0,12) DPWR DGND
+ W Y
+ GBAR A B C D0 D1 D2 D3 D4 D5 D6 D7