* Library of CMOS CD4000 Series Digital Models
*
*  Copyright OrCAD, Inc. 1998 All Rights Reserved.
*
*
* $Revision:   1.5  $
* $Author:   RPEREZ  $
* $Date:   17 Apr 1998 10:54:16  $
*
*
*$
*-------------------------------------------------------------------------
* CD4000A  CMOS NOR GATE DUAL 3 INPUT PLUS INVERTER
*
* The CMOS Integrated Circuits Data Book, 1983, RCA Solid State
* tvh	09/29/89	Update interface and model names
*
.subckt CD4000A  A B C D E F G H K L
+	optional: VDD=$G_CD4000_VDD VSS=$G_CD4000_VSS
+	params: MNTYMXDLY=0 IO_LEVEL=0
U1 nora(3,2) VDD VSS
+	A B C D E F   H K 
+	D_CD4000A IO_4000A MNTYMXDLY={MNTYMXDLY} IO_LEVEL={IO_LEVEL} 
U2 inv VDD VSS
+	G   L 
+	D_CD4000A IO_4000A MNTYMXDLY={MNTYMXDLY} IO_LEVEL={IO_LEVEL} 
.ends
*
.model D_CD4000A ugate (
+	TPLHTY=35NS	TPHLTY=35NS
+	TPLHMX=120NS	TPHLMX=80NS
+	)
*$
*----------
* CD4000B  CMOS NOR GATE DUAL 3 INPUT PLUS INVERTER
*
* The CMOS Integrated Circuits Data Book, 1983, RCA Solid State
* tvh	09/29/89	Update interface and model names
*
.subckt CD4000B  A B C D E F G H K L
+	optional: VDD=$G_CD4000_VDD VSS=$G_CD4000_VSS
+	params: MNTYMXDLY=0 IO_LEVEL=0
U1 nora(3,2) VDD VSS
+	A B C D E F   H K 
+	D_CD4000B IO_4000B MNTYMXDLY={MNTYMXDLY} IO_LEVEL={IO_LEVEL} 
U2 inv VDD VSS
+	G   L 
+	D_CD4000B IO_4000B MNTYMXDLY={MNTYMXDLY} IO_LEVEL={IO_LEVEL} 
.ends
*
.model D_CD4000B ugate (
+	TPLHTY=125NS	TPHLTY=125NS
+	TPLHMX=250NS	TPHLMX=250NS
+	)
*$
*----------
* CD4000UB  CMOS NOR GATE DUAL 3 INPUT PLUS INVERTER
*
* The CMOS Integrated Circuits Data Book, 1983, RCA Solid State
* tvh	09/29/89	Update interface and model names
*
.subckt CD4000UB  A B C D E F G H K L
+	optional: VDD=$G_CD4000_VDD VSS=$G_CD4000_VSS
+	params: MNTYMXDLY=0 IO_LEVEL=0
U1 nora(3,2) VDD VSS
+	A B C D E F   H K 
+	D_CD4000UB IO_4000UB MNTYMXDLY={MNTYMXDLY} IO_LEVEL={IO_LEVEL} 
U2 inv VDD VSS
+	G   L 
+	D_CD4000UB IO_4000UB MNTYMXDLY={MNTYMXDLY} IO_LEVEL={IO_LEVEL} 
.ends
*
.model D_CD4000UB ugate (
+	TPLHTY=60NS	TPHLTY=60NS
+	TPLHMX=120NS	TPHLMX=120NS
+	)
*$
*-------------------------------------------------------------------------
* CD4001A  CMOS NOR GATE QUAD 2 INPUTS
*
* The CMOS Integrated Circuits Data Book, 1983, RCA Solid State
* tvh	09/29/89	Update interface and model names
*
.subckt CD4001A  A B J
+	optional: VDD=$G_CD4000_VDD VSS=$G_CD4000_VSS
+	params: MNTYMXDLY=0 IO_LEVEL=0
U1 nor(2) VDD VSS
+	A B   J 
+	D_CD4001A IO_4000A MNTYMXDLY={MNTYMXDLY} IO_LEVEL={IO_LEVEL} 
.ends
*
.model D_CD4001A ugate (
+	TPLHTY=35NS	TPHLTY=35NS
+	TPLHMX=120NS	TPHLMX=80NS
+	)
*$
*----------
* CD4001B  CMOS NOR GATE QUAD 2 INPUTS
*
* The CMOS Integrated Circuits Data Book, 1983, RCA Solid State
* tvh	09/29/89	Update interface and model names
*
.subckt CD4001B  A B J
+	optional: VDD=$G_CD4000_VDD VSS=$G_CD4000_VSS
+	params: MNTYMXDLY=0 IO_LEVEL=0
U1 nor(2) VDD VSS
+	A B   J 
+	D_CD4001B IO_4000B MNTYMXDLY={MNTYMXDLY} IO_LEVEL={IO_LEVEL} 
.ends
*
.model D_CD4001B ugate (
+	TPLHTY=125NS	TPHLTY=125NS
+	TPLHMX=250NS	TPHLMX=250NS
+	)
*$
*----------
* CD4001UB  CMOS NOR GATE QUAD 2 INPUTS
*
* The CMOS Integrated Circuits Data Book, 1983, RCA Solid State
* tvh	09/29/89	Update interface and model names
*
.subckt CD4001UB  A B J
+	optional: VDD=$G_CD4000_VDD VSS=$G_CD4000_VSS
+	params: MNTYMXDLY=0 IO_LEVEL=0
U1 nor(2) VDD VSS
+	A B   J 
+	D_CD4001UB IO_4000UB MNTYMXDLY={MNTYMXDLY} IO_LEVEL={IO_LEVEL} 
.ends
*
.model D_CD4001UB ugate (
+	TPLHTY=60NS	TPHLTY=60NS
+	TPLHMX=120NS	TPHLMX=120NS
+	)
*$
*-------------------------------------------------------------------------
* CD4002A  CMOS NOR GATE DUAL 4 INPUTS
*
* The CMOS Integrated Circuits Data Book, 1983, RCA Solid State
* tvh	09/29/89	Update interface and model names
*
.subckt CD4002A  A B C D J
+	optional: VDD=$G_CD4000_VDD VSS=$G_CD4000_VSS
+	params: MNTYMXDLY=0 IO_LEVEL=0
U1 nor(4) VDD VSS
+	A B C D   J 
+	D_CD4002A IO_4000A MNTYMXDLY={MNTYMXDLY} IO_LEVEL={IO_LEVEL} 
.ends
*
.model D_CD4002A ugate (
+	TPLHTY=35NS	TPHLTY=35NS
+	TPLHMX=120NS	TPHLMX=80NS
+	)
*$
*----------
* CD4002B  CMOS NOR GATE DUAL 4 INPUTS
*
* The CMOS Integrated Circuits Data Book, 1983, RCA Solid State
* tvh	09/29/89	Update interface and model names
*
.subckt CD4002B  A B C D J
+	optional: VDD=$G_CD4000_VDD VSS=$G_CD4000_VSS
+	params: MNTYMXDLY=0 IO_LEVEL=0
U1 nor(4) VDD VSS
+	A B C D   J 
+	D_CD4002B IO_4000B MNTYMXDLY={MNTYMXDLY} IO_LEVEL={IO_LEVEL} 
.ends
*
.model D_CD4002B ugate (
+	TPLHTY=125NS	TPHLTY=125NS
+	TPLHMX=250NS	TPHLMX=250NS
+	)
*$
*----------
* CD4002UB  CMOS NOR GATE DUAL 4 INPUTS
*
* The CMOS Integrated Circuits Data Book, 1983, RCA Solid State
* tvh	09/29/89	Update interface and model names
*
.subckt CD4002UB  A B C D J
+	optional: VDD=$G_CD4000_VDD VSS=$G_CD4000_VSS
+	params: MNTYMXDLY=0 IO_LEVEL=0
U1 nor(4) VDD VSS
+	A B C D   J 
+	D_CD4002UB IO_4000UB MNTYMXDLY={MNTYMXDLY} IO_LEVEL={IO_LEVEL} 
.ends
*
.model D_CD4002UB ugate (
+	TPLHTY=60NS	TPHLTY=60NS
+	TPLHMX=120NS	TPHLMX=120NS
+	)
*$
*-------------------------------------------------------------------------
* CD4009A  CMOS HEX BUFFERS/CONVERTERS
*
* The CMOS Integrated Circuits Data Book, 1983, RCA Solid State
* tvh	10/2/89 	Update interface and model names
*
.subckt CD4009A  A G
+	optional: VDD=$G_CD4000_VDD VSS=$G_CD4000_VSS
+	params: MNTYMXDLY=0 IO_LEVEL=0
U1 inv VDD VSS
+	A   G 
+	D_CD4009A IO_4000A MNTYMXDLY={MNTYMXDLY} IO_LEVEL={IO_LEVEL} 
.ends
*
.model D_CD4009A ugate (
+	TPLHTY=50NS	TPLHMX=100NS
+	TPHLTY=15NS	TPHLMX=70NS
+	)
*$
*----------
* CD4009UB  CMOS HEX BUFFERS/CONVERTERS
*
* The CMOS Integrated Circuits Data Book, 1983, RCA Solid State
* tvh	10/2/89 	Update interface and model names
*
.subckt CD4009UB  A G
+	optional: VDD=$G_CD4000_VDD VSS=$G_CD4000_VSS
+	params: MNTYMXDLY=0 IO_LEVEL=0
U1 inv VDD VSS
+	A   G 
+	D_CD4009UB IO_4000UB MNTYMXDLY={MNTYMXDLY} IO_LEVEL={IO_LEVEL} 
.ends
*
.model D_CD4009UB ugate (
+	TPLHTY=70NS	TPLHMX=140NS
+	TPHLTY=30NS	TPHLMX=60NS
+	)
*$
*-------------------------------------------------------------------------
* CD4010A  CMOS HEX BUFFERS/CONVERTERS
*
* The CMOS Integrated Circuits Data Book, 1983, RCA Solid State
* tvh	10/2/89 	Update interface and model names
*
.subckt CD4010A  A G
+	optional: VDD=$G_CD4000_VDD VSS=$G_CD4000_VSS DPWR=$G_DPWR
+	params: MNTYMXDLY=0 IO_LEVEL=0
U1 buf VDD VSS
+	A   A1 
+	D0_GATE IO_4000A MNTYMXDLY={MNTYMXDLY} IO_LEVEL={IO_LEVEL} 
U2 buf DPWR VSS
+	A1   G 
+	D_CD4010A IO_HCT MNTYMXDLY={MNTYMXDLY} IO_LEVEL={IO_LEVEL} 
.ends
*
.model D_CD4010A ugate (
+	TPLHTY=50NS	TPLHMX=100NS
+	TPHLTY=15NS	TPHLMX=70NS
+	)
*$
*----------
* CD4010B  CMOS HEX BUFFERS/CONVERTERS
*
* The CMOS Integrated Circuits Data Book, 1983, RCA Solid State
* tvh	10/2/89 	Update interface and model names
*
.subckt CD4010B  A G
+	optional: VDD=$G_CD4000_VDD VSS=$G_CD4000_VSS DPWR=$G_DPWR
+	params: MNTYMXDLY=0 IO_LEVEL=0
U1 buf VDD VSS
+	A   A1
+	D0_GATE IO_4000B MNTYMXDLY={MNTYMXDLY} IO_LEVEL={IO_LEVEL} 
U2 buf DPWR VSS
+	A1   G 
+	D_CD4010B IO_HCT MNTYMXDLY={MNTYMXDLY} IO_LEVEL={IO_LEVEL} 
.ends
*
.model D_CD4010B ugate (
+	TPLHTY=100NS	TPLHMX=200NS
+	TPHLTY=65NS	TPHLMX=130NS
+	)
*$
*-------------------------------------------------------------------------
* CD4011A  CMOS NAND GATE QUAD 2 INPUTS
*
* The CMOS Integrated Circuits Data Book, 1983, RCA Solid State
* tvh	09/29/89	Update interface and model names
*
.subckt CD4011A  A B J
+	optional: VDD=$G_CD4000_VDD VSS=$G_CD4000_VSS
+	params: MNTYMXDLY=0 IO_LEVEL=0
U1 nand(2) VDD VSS
+	A B   J 
+	D_CD4011A IO_4000A MNTYMXDLY={MNTYMXDLY} IO_LEVEL={IO_LEVEL} 
.ends
*
.model D_CD4011A ugate (
+	TPLHTY=50NS	TPHLTY=50NS
+	TPLHMX=100NS	TPHLMX=100NS
+	)
*$
*----------
* CD4011B  CMOS NAND GATE QUAD 2 INPUTS
*
* The CMOS Integrated Circuits Data Book, 1983, RCA Solid State
* tvh	09/29/89	Update interface and model names
*
.subckt CD4011B  A B J
+	optional: VDD=$G_CD4000_VDD VSS=$G_CD4000_VSS
+	params: MNTYMXDLY=0 IO_LEVEL=0
U1 nand(2) VDD VSS
+	A B   J 
+	D_CD4011B IO_4000B MNTYMXDLY={MNTYMXDLY} IO_LEVEL={IO_LEVEL} 
.ends
*
.model D_CD4011B ugate (
+	TPLHTY=60NS	TPHLTY=60NS
+	TPLHMX=120NS	TPHLMX=120NS
+	)
*$
*----------
* CD4011UB  CMOS NAND GATE QUAD 2 INPUTS
*
* The CMOS Integrated Circuits Data Book, 1983, RCA Solid State
* tvh	09/29/89	Update interface and model names
*
.subckt CD4011UB  A B J
+	optional: VDD=$G_CD4000_VDD VSS=$G_CD4000_VSS
+	params: MNTYMXDLY=0 IO_LEVEL=0
U1 nand(2) VDD VSS
+	A B   J 
+	D_CD4011UB IO_4000UB MNTYMXDLY={MNTYMXDLY} IO_LEVEL={IO_LEVEL} 
.ends
*
.model D_CD4011UB ugate (
+	TPLHTY=60NS	TPHLTY=60NS
+	TPLHMX=120NS	TPHLMX=120NS
+	)
*$
*-------------------------------------------------------------------------
* CD4012A  CMOS NAND GATE DUAL 4 INPUTS
*
* The CMOS Integrated Circuits Data Book, 1983, RCA Solid State
* tvh	09/29/89	Update interface and model names
*
.subckt CD4012A  A B C D J
+	optional: VDD=$G_CD4000_VDD VSS=$G_CD4000_VSS
+	params: MNTYMXDLY=0 IO_LEVEL=0
U1 nand(4) VDD VSS
+	A B C D   J 
+	D_CD4012A IO_4000A MNTYMXDLY={MNTYMXDLY} IO_LEVEL={IO_LEVEL} 
.ends
*
.model D_CD4012A ugate (
+	TPLHTY=50NS	TPHLTY=100NS
+	TPLHMX=100NS	TPHLMX=200NS
+	)
*$
*----------
* CD4012B  CMOS NAND GATE DUAL 4 INPUTS
*
* The CMOS Integrated Circuits Data Book, 1983, RCA Solid State
* tvh	09/29/89	Update interface and model names
*
.subckt CD4012B  A B C D J
+	optional: VDD=$G_CD4000_VDD VSS=$G_CD4000_VSS
+	params: MNTYMXDLY=0 IO_LEVEL=0
U1 nand(4) VDD VSS
+	A B C D   J 
+	D_CD4012B IO_4000B MNTYMXDLY={MNTYMXDLY} IO_LEVEL={IO_LEVEL} 
.ends
*
.model D_CD4012B ugate (
+	TPLHTY=125NS	TPHLTY=125NS
+	TPLHMX=250NS	TPHLMX=250NS
+	)
*$
*----------
* CD4012UB  CMOS NAND GATE DUAL 4 INPUTS
*
* The CMOS Integrated Circuits Data Book, 1983, RCA Solid State
* tvh	09/29/89	Update interface and model names
*
.subckt CD4012UB  A B C D J
+	optional: VDD=$G_CD4000_VDD VSS=$G_CD4000_VSS
+	params: MNTYMXDLY=0 IO_LEVEL=0
U1 nand(4) VDD VSS
+	A B C D   J 
+	D_CD4012UB IO_4000UB MNTYMXDLY={MNTYMXDLY} IO_LEVEL={IO_LEVEL} 
.ends
*
.model D_CD4012UB ugate (
+	TPLHTY=60NS	TPHLTY=60NS
+	TPLHMX=120NS	TPHLMX=120NS
+	)
*$
*-------------------------------------------------------------------------
* CD4013A  CMOS  Dual D-Type Flip Flops
*
* The CMOS Intergrated Circuit Data Book, 1983, RCA Solid State
* tdn	10/02/89	Update interface and model names
*
.subckt CD4013A  SET RESET CLK D Q QBAR
+	optional: VDD=$G_CD4000_VDD VSS=$G_CD4000_VSS
+	params: MNTYMXDLY=0 IO_LEVEL=0
U1 inva(2) VDD VSS
+	SET RESET   PREB CLRB 
+	D0_GATE IO_4000A IO_LEVEL={IO_LEVEL} 
U2 dff(1) VDD VSS
+	PREB CLRB CLK   D   Q QBAR 
+	D_CD4013A IO_4000A MNTYMXDLY={MNTYMXDLY} IO_LEVEL={IO_LEVEL} 
.ends
*
.model D_CD4013A ueff (
+	twclklty=125ns	twclklmx=200ns
+	twclkhty=125ns	twclkhmx=200ns
+	twpclty=125ns	twpclmx=200ns
+	tsudclkty=20ns	tsudclkmx=40ns
+	tpclkqhlty=150ns	tpclkqhlmx=300ns
+	tpclkqlhty=150ns	tpclkqlhmx=300ns
+	tppcqhlty=175ns	tppcqhlmx=300ns
+	tppcqlhty=175ns	tppcqlhmx=300ns
+	)
*$
*---------
* CD4013B  CMOS Dual D-Type Flip-Flop
*
* The CMOS Intergrated Circuit Data Book, 1983, RCA Solid State
* tdn	10/02/89	Update interface and model names
*
.subckt CD4013B  SET RESET CLK D Q QBAR
+	optional: VDD=$G_CD4000_VDD VSS=$G_CD4000_VSS
+	params: MNTYMXDLY=0 IO_LEVEL=0
U1 inva(2) VDD VSS
+	SET RESET   PREB CLRB 
+	D0_GATE IO_4000B IO_LEVEL={IO_LEVEL} 
U2 dff(1) VDD VSS
+	PREB CLRB CLK   D   Q QBAR 
+	D_CD4013B IO_4000B MNTYMXDLY={MNTYMXDLY} IO_LEVEL={IO_LEVEL} 
.ends
*
.model D_CD4013B ueff (
+	twclklty=70ns	twclklmx=140ns
+	twclkhty=70ns	twclkhmx=140ns
+	twpclty=90ns	twpclmx=180ns
+	tsudclkty=20ns	tsudclkmx=40ns
+	tpclkqlhmx=300ns	tpclkqhlmx=300ns
+	tppcqlhmx=300ns	tppcqhlmx=400ns
+	)
*
*$
*-------------------------------------------------------------------------
* CD4017A CMOS DECADE COUNTER/DIVIDER
*
* CMOS INTEGRATED CIRCUITS DATABOOK, 1983, RCA SOLID STATE DIVISION
* NH 9/8/92      REMODELED USING LOGICEXP, PINDLY, CONSTRAINT DEVICES
*
.SUBCKT CD4017A CLK_I CLKINHIBIT_I RESET_I O0_O O1_O O2_O O3_O O4_O O5_O O6_O
+               O7_O O8_O O9_O CARRYOUT_O
+ OPTIONAL: VDD=$G_CD4000_VDD VSS=$G_CD4000_VSS
+ PARAMS: MNTYMXDLY=0 IO_LEVEL=0
*
U17ALOG LOGICEXP(13,17) VDD VSS
+ CLK_I CLKINHIBIT_I RESET_I Q1 Q2 Q3 Q4 Q5 Q1BAR Q2BAR Q3BAR Q4BAR Q5BAR
+ CLK CLKINHIBIT RESET CLOCK O0 O1 O2 O3 O4 O5 O6 O7 O8 O9 CARRYOUT TOQ3 RST
+ D0_GATE IO_4000A IO_LEVEL={IO_LEVEL}
+
+ LOGIC:
+
* BUFFERS
+   CLK = { CLK_I }
+   CLKINHIBIT = { CLKINHIBIT_I }
+   RESET = { RESET_I }
+
* OUTPUT ASSIGNMENTS
+   CLOCK = { CLK & ~CLKINHIBIT }
+   O0 = { Q5BAR & Q1BAR }
+   O1 = { Q1 & Q2BAR }
+   O2 = { Q2 & Q3BAR }
+   O3 = { Q3 & Q4BAR }
+   O4 = { Q4 & Q5BAR }
+   O5 = { Q5 & Q1 }
+   O6 = { Q1BAR & Q2 }
+   O7 = { Q2BAR & Q3 }
+   O8 = { Q3BAR & Q4 }
+   O9 = { Q4BAR & Q5 }
+   CARRYOUT = { Q5BAR }
+   TOQ3 = { ((Q1 & Q2) | (Q2 & Q3)) }
+   RST = { ~RESET }
*
UFF DFF(5) VDD VSS
+ $D_HI RST CLOCK Q5BAR Q1 TOQ3 Q3 Q4 Q1 Q2 Q3 Q4 Q5
+ Q1BAR Q2BAR Q3BAR Q4BAR Q5BAR
+ D0_EFF IO_4000A
*
U17ADLY PINDLY (11,0,4) VDD VSS
+ O0 O1 O2 O3 O4 O5 O6 O7 O8 O9 CARRYOUT
+ CLOCK RESET CLK CLKINHIBIT
+ O0_O O1_O O2_O O3_O O4_O O5_O O6_O O7_O O8_O O9_O CARRYOUT_O
+ IO_4000A MNTYMXDLY={MNTYMXDLY} IO_LEVEL={IO_LEVEL}
+
+ PINDLY:
+   O0_O O1_O O2_O O3_O O4_O O5_O O6_O O7_O O8_O O9_O = {
+     CASE(
+       CHANGED(RESET,0), DELAY(-1,450NS,1600NS),
+       CHANGED(CLOCK,0), DELAY(-1,500NS,1600NS),
+       DELAY(-1,501NS,1601NS)                  ;DEFAULT
+       )
+     }
+   CARRYOUT_O = {
+       DELAY(-1,350NS,1300NS)
+     }
+
+ FREQ:
+   NODE = CLK
+   MAXFREQ = 0.6MEG
+
+ WIDTH:
+   NODE = CLK
+   MIN_HI = 830NS
+   MIN_LO = 830NS
+
+ WIDTH:
+   NODE = RESET
+   MIN_HI = 830NS
+
+ SETUP_HOLD:
+   DATA(1) RESET
+   CLOCK LH = CLK
+   RELEASETIME_HL = 1000NS
+
+ SETUP_HOLD:
+   DATA(1) CLKINHIBIT
+   CLOCK LH = CLK
+   SETUPTIME = 700NS
+   WHEN = { RESET!='1 }
*
.ENDS
*
*$
*---------
* CD4017B CMOS COUNTER/DIVIDER
*
* CMOS INTEGRATED CIRCUITS DATABOOK, 1983, RCA SOLID STATE DIVISION
* NH 9/8/92      REMODELED USING LOGICEXP, PINDLY, CONSTRAINT DEVICES
*
.SUBCKT CD4017B CLK_I CLKINHIBIT_I RESET_I O0_O O1_O O2_O O3_O O4_O O5_O O6_O
+               O7_O O8_O O9_O CARRYOUT_O
+ OPTIONAL: VDD=$G_CD4000_VDD VSS=$G_CD4000_VSS
+ PARAMS: MNTYMXDLY=0 IO_LEVEL=0
*
U17BBUF BUF VDD VSS
+ CLK_I CLK
+ D0_GATE IO_4000B_ST IO_LEVEL={IO_LEVEL}
*
U17BLOG LOGICEXP(13,16) VDD VSS
+ CLK CLKINHIBIT_I RESET_I Q1 Q2 Q3 Q4 Q5 Q1BAR Q2BAR Q3BAR Q4BAR Q5BAR
+ CLKINHIBIT RESET CLOCK O0 O1 O2 O3 O4 O5 O6 O7 O8 O9 CARRYOUT TOQ3 RST
+ D0_GATE IO_4000B IO_LEVEL={IO_LEVEL}
+
+ LOGIC:
+
* BUFFERS
+   CLKINHIBIT = { CLKINHIBIT_I }
+   RESET = { RESET_I }
+
* OUTPUT ASSIGNMENTS
+   CLOCK = { ~(~CLK | CLKINHIBIT) }
+   O0 = { Q5BAR & Q1BAR }
+   O1 = { Q1 & Q2BAR }
+   O2 = { Q2 & Q3BAR }
+   O3 = { Q3 & Q4BAR }
+   O4 = { Q4 & Q5BAR }
+   O5 = { Q5 & Q1 }
+   O6 = { Q1BAR & Q2 }
+   O7 = { Q2BAR & Q3 }
+   O8 = { Q3BAR & Q4 }
+   O9 = { Q4BAR & Q5 }
+   CARRYOUT = { Q5BAR }
+   TOQ3 = { ((Q1 & Q2) | (Q2 & Q3)) }
+   RST = { ~RESET }
*
UFF DFF(5) VDD VSS
+ $D_HI RST CLOCK Q5BAR Q1 TOQ3 Q3 Q4 Q1 Q2 Q3 Q4 Q5
+ Q1BAR Q2BAR Q3BAR Q4BAR Q5BAR
+ D0_EFF IO_4000B
*
U17BDLY PINDLY (11,0,4) VDD VSS
+ O0 O1 O2 O3 O4 O5 O6 O7 O8 O9 CARRYOUT
+ CLOCK RESET CLK CLKINHIBIT
+ O0_O O1_O O2_O O3_O O4_O O5_O O6_O O7_O O8_O O9_O CARRYOUT_O
+ IO_4000B MNTYMXDLY={MNTYMXDLY} IO_LEVEL={IO_LEVEL}
+
+ BOOLEAN:
+   CH_CLOCK = { CHANGED_LH(CLOCK,0) }
+   CH_RESET = { CHANGED_LH(RESET,0) }
+
+ PINDLY:
+   O0_O O1_O O2_O O3_O O4_O O5_O O6_O O7_O O8_O O9_O = {
+     CASE(
+       CH_RESET, DELAY(-1,265NS,530NS),
+       CH_CLOCK, DELAY(-1,325NS,650NS),
+       DELAY(-1,326NS,651NS)                  ;DEFAULT
+       )
+     }
+   CARRYOUT_O = {
+     CASE(
+       CH_RESET, DELAY(-1,265NS,530NS),
+       CH_CLOCK, DELAY(-1,300NS,600NS),
+       DELAY(-1,301NS,601NS)
+       )
+     }
+
+ FREQ:
+   NODE = CLK
+   MAXFREQ = 2.5MEG
+
+ WIDTH:
+   NODE = CLK
+   MIN_HI = 200NS
+   MIN_LO = 200NS
+
+ WIDTH:
+   NODE = RESET
+   MIN_HI = 260NS
+
+ SETUP_HOLD:
+   DATA(1) RESET
+   CLOCK LH = CLK
+   RELEASETIME_HL = 400NS
+
+ SETUP_HOLD:
+   DATA(1) CLKINHIBIT
+   CLOCK LH = CLK
+   SETUPTIME = 230NS
+   WHEN = { RESET!='1 }
*
.ENDS
*
*$
*-------------------------------------------------------------------------
* CD4018A CMOS PRESETTABLE DIVIDE-BY-N COUNTER
*
* CMOS INTEGRATED CIRCUITS DATABOOK, 1983, RCA SOLID STATE DIVISION
* NH 9/9/82       REMODELED USING LOGICEXP, PINDLY, CONSTRAINT DEVICES
*
.SUBCKT CD4018A CLK_I PSENABLE_I RESET_I DATA_I JAM1_I JAM2_I JAM3_I JAM4_I
+              JAM5_I Q1BAR_O Q2BAR_O Q3BAR_O Q4BAR_O Q5BAR_O
+ OPTIONAL: VDD=$G_CD4000_VDD VSS=$G_CD4000_VSS
+ PARAMS: MNTYMXDLY=0 IO_LEVEL=0
*
U18ALOG LOGICEXP(12,20) VDD VSS
+ CLK_I PSENABLE_I RESET_I DATA_I JAM1_I JAM2_I JAM3_I JAM4_I JAM5_I Q1BAR
+   Q2BAR Q3BAR
+ CLK PSENABLE RESET DATA JAM1 JAM2 JAM3 JAM4 JAM5 RST1 RST2 RST3 RST4 RST5
+   PST1 PST2 PST3 PST4 PST5 TOD3
+ D0_GATE IO_4000A IO_LEVEL={IO_LEVEL}
+
+ LOGIC:
* BUFFERS
+   CLK = { CLK_I }
+   PSENABLE = { PSENABLE_I }
+   RESET = { RESET_I }
+   DATA = { DATA_I }
+   JAM1 = { JAM1_I }
+   JAM2 = { JAM2_I }
+   JAM3 = { JAM3_I }
+   JAM4 = { JAM4_I }
+   JAM5 = { JAM5_I }
+
+   RST1 = { ~(RESET | (PSENABLE & ~JAM1)) }
+   RST2 = { ~(RESET | (PSENABLE & ~JAM2)) }
+   RST3 = { ~(RESET | (PSENABLE & ~JAM3)) }
+   RST4 = { ~(RESET | (PSENABLE & ~JAM4)) }
+   RST5 = { ~(RESET | (PSENABLE & ~JAM5)) }
+   PST1 = { ~(PSENABLE & JAM1) }
+   PST2 = { ~(PSENABLE & JAM2) }
+   PST3 = { ~(PSENABLE & JAM3) }
+   PST4 = { ~(PSENABLE & JAM4) }
+   PST5 = { ~(PSENABLE & JAM5) }
+   TOD3 = { ~( (Q1BAR & Q3BAR) | Q2BAR ) }
*
U1FF DFF(1) VDD VSS
+ PST1 RST1 CLK DATA Q1 Q1BAR
+ D0_EFF IO_4000A
*
U2FF DFF(1) VDD VSS
+ PST2 RST2 CLK Q1 $D_NC Q2BAR
+ D0_EFF IO_4000A
*
U3FF DFF(1) VDD VSS
+ PST3 RST3 CLK TOD3 Q3 Q3BAR
+ D0_EFF IO_4000A
*
U4FF DFF(1) VDD VSS
+ PST4 RST4 CLK Q3 Q4 Q4BAR
+ D0_EFF IO_4000A
*
U5FF DFF(1) VDD VSS
+ PST5 RST5 CLK Q4 $D_NC Q5BAR
+ D0_EFF IO_4000A
*
U18ADLY PINDLY (5,0,9) VDD VSS
+ Q1BAR Q2BAR Q3BAR Q4BAR Q5BAR
+ CLK DATA RESET PSENABLE JAM1 JAM2 JAM3 JAM4 JAM5
+ Q1BAR_O Q2BAR_O Q3BAR_O Q4BAR_O Q5BAR_O
+ IO_4000A MNTYMXDLY={MNTYMXDLY} IO_LEVEL={IO_LEVEL}
+
+ PINDLY:
+   Q5BAR_O = {
+     DELAY(-1,350NS,1300NS)
+   }
+   Q1BAR_O Q2BAR_O Q3BAR_O Q4BAR_O = {
+     DELAY(-1,500NS,1600NS)
+   }
+
+ FREQ:
+   NODE = CLK
+   MAXFREQ = 0.6MEG
+
+ WIDTH:
+   NODE = CLK
+   MIN_HI = 830NS
+   MIN_LO = 830NS
+
+ WIDTH:
+   NODE = RESET
+   MIN_HI = 830NS
+
+ WIDTH:
+   NODE = PSENABLE
+   MIN_HI = 830NS
+
+ WIDTH:
+   NODE = JAM1
+   MIN_HI = 830NS
+   MIN_LO = 830NS
+   MESSAGE = "PRESET PULSE WIDTH IS TOO SHORT"
+
+ WIDTH:
+   NODE = JAM2
+   MIN_HI = 830NS
+   MIN_LO = 830NS
+   MESSAGE = "PRESET PULSE WIDTH IS TOO SHORT"
+
+ WIDTH:
+   NODE = JAM3
+   MIN_HI = 830NS
+   MIN_LO = 830NS
+   MESSAGE = "PRESET PULSE WIDTH IS TOO SHORT"
+
+ WIDTH:
+   NODE = JAM4
+   MIN_HI = 830NS
+   MIN_LO = 830NS
+   MESSAGE = "PRESET PULSE WIDTH IS TOO SHORT"
+
+ WIDTH:
+   NODE = JAM5
+   MIN_HI = 830NS
+   MIN_LO = 830NS
+   MESSAGE = "PRESET PULSE WIDTH IS TOO SHORT"
+
+ SETUP_HOLD:
+   DATA(2) RESET PSENABLE
+   CLOCK LH = CLK
+   RELEASETIME_HL = 1000NS
+
+ SETUP_HOLD:
+   DATA(1) DATA
+   CLOCK LH = CLK
+   SETUPTIME = 700NS
+   WHEN = { RESET!='1  & PSENABLE!='1 }
*
.ENDS
*
*$
*---------
* CD4018B CMOS PRESETTABLE DIVIDE-BY-N COUNTER
*
* CMOS INTEGRATED CIRCUITS DATABOOK, 1983, RCA SOLID STATE DIVISION
* NH 9/9/82       REMODELED USING LOGICEXP, PINDLY, CONSTRAINT DEVICES
*
.SUBCKT CD4018B CLK_I PSENABLE_I RESET_I DATA_I JAM1_I JAM2_I JAM3_I JAM4_I
+              JAM5_I Q1BAR_O Q2BAR_O Q3BAR_O Q4BAR_O Q5BAR_O
+ OPTIONAL: VDD=$G_CD4000_VDD VSS=$G_CD4000_VSS
+ PARAMS: MNTYMXDLY=0 IO_LEVEL=0
*
UBUF BUF VDD VSS
+ CLK_I CLK
+ D0_GATE IO_4000B_ST IO_LEVEL={IO_LEVEL}
*
U18BLOG LOGICEXP(12,20) VDD VSS
+ CLK PSENABLE_I RESET_I DATA_I JAM1_I JAM2_I JAM3_I JAM4_I JAM5_I Q1BAR
+   Q2BAR Q3BAR
+ CLOCK PSENABLE RESET DATA JAM1 JAM2 JAM3 JAM4 JAM5 RST1 RST2 RST3 RST4 RST5
+   PST1 PST2 PST3 PST4 PST5 TOD3
+ D0_GATE IO_4000B IO_LEVEL={IO_LEVEL}
+
+ LOGIC:
* BUFFERS
+   PSENABLE = { PSENABLE_I }
+   RESET = { RESET_I }
+   DATA = { DATA_I }
+   JAM1 = { JAM1_I }
+   JAM2 = { JAM2_I }
+   JAM3 = { JAM3_I }
+   JAM4 = { JAM4_I }
+   JAM5 = { JAM5_I }
+
+   RST1 = { ~(RESET | (PSENABLE & ~JAM1)) }
+   RST2 = { ~(RESET | (PSENABLE & ~JAM2)) }
+   RST3 = { ~(RESET | (PSENABLE & ~JAM3)) }
+   RST4 = { ~(RESET | (PSENABLE & ~JAM4)) }
+   RST5 = { ~(RESET | (PSENABLE & ~JAM5)) }
+   PST1 = { ~(PSENABLE & JAM1) }
+   PST2 = { ~(PSENABLE & JAM2) }
+   PST3 = { ~(PSENABLE & JAM3) }
+   PST4 = { ~(PSENABLE & JAM4) }
+   PST5 = { ~(PSENABLE & JAM5) }
+   TOD3 = { ~( (Q1BAR & Q3BAR) | Q2BAR ) }
+   CLOCK = { ~(~CLK & ~PSENABLE & ~RESET) }
*
U1FF DFF(1) VDD VSS
+ PST1 RST1 CLOCK DATA Q1 Q1BAR
+ D0_EFF IO_4000B
*
U2FF DFF(1) VDD VSS
+ PST2 RST2 CLOCK Q1 $D_NC Q2BAR
+ D0_EFF IO_4000B
*
U3FF DFF(1) VDD VSS
+ PST3 RST3 CLOCK TOD3 Q3 Q3BAR
+ D0_EFF IO_4000B
*
U4FF DFF(1) VDD VSS
+ PST4 RST4 CLOCK Q3 Q4 Q4BAR
+ D0_EFF IO_4000B
*
U5FF DFF(1) VDD VSS
+ PST5 RST5 CLOCK Q4 $D_NC Q5BAR
+ D0_EFF IO_4000B
*
U18BDLY PINDLY (5,0,9) VDD VSS
+ Q1BAR Q2BAR Q3BAR Q4BAR Q5BAR
+ CLK RESET PSENABLE JAM1 JAM2 JAM3 JAM4 JAM5 DATA
+ Q1BAR_O Q2BAR_O Q3BAR_O Q4BAR_O Q5BAR_O
+ IO_4000B MNTYMXDLY={MNTYMXDLY} IO_LEVEL={IO_LEVEL}
+
+ BOOLEAN:
+   CH_PST_RST = { CHANGED(PSENABLE,0) | CHANGED(RESET,0) | CHANGED(JAM1,0) |
+        CHANGED(JAM2,0) | CHANGED(JAM3,0) | CHANGED(JAM4,0) | 
+        CHANGED(JAM5,0) }
+     
+ PINDLY:
+   Q1BAR_O Q2BAR_O Q3BAR_O Q4BAR_O Q5BAR_O = {
+     CASE(
+       CH_PST_RST, DELAY(-1,275NS,550NS),
+       CHANGED(CLK,0), DELAY(-1,200NS,400NS),
+       DELAY(-1,276NS,551NS)
+       )
+     }
+
+ FREQ:
+   NODE = CLK
+   MAXFREQ = 3MEG
+
+ WIDTH:
+   NODE = CLK
+   MIN_HI = 160NS
+   MIN_LO = 160NS
+
+ WIDTH:
+   NODE = RESET
+   MIN_HI = 160NS
+
+ WIDTH:
+   NODE = PSENABLE
+   MIN_HI = 160NS
+
+ WIDTH:
+   NODE = JAM1
+   MIN_HI = 160NS
+   MIN_LO = 160NS
+   MESSAGE = "PRESET PULSE WIDTH IS TOO SHORT"
+
+ WIDTH:
+   NODE = JAM2
+   MIN_HI = 160NS
+   MIN_LO = 160NS
+   MESSAGE = "PRESET PULSE WIDTH IS TOO SHORT"
+
+ WIDTH:
+   NODE = JAM3
+   MIN_HI = 160NS
+   MIN_LO = 160NS
+   MESSAGE = "PRESET PULSE WIDTH IS TOO SHORT"
+
+ WIDTH:
+   NODE = JAM4
+   MIN_HI = 160NS
+   MIN_LO = 160NS
+   MESSAGE = "PRESET PULSE WIDTH IS TOO SHORT"
+
+ WIDTH:
+   NODE = JAM5
+   MIN_HI = 160NS
+   MIN_LO = 160NS
+   MESSAGE = "PRESET PULSE WIDTH IS TOO SHORT"
+
+ SETUP_HOLD:
+   DATA(2) RESET PSENABLE
+   CLOCK LH = CLK
+   RELEASETIME_HL = 80NS
+
+ SETUP_HOLD:
+   DATA(1) DATA
+   CLOCK LH = CLK
+   SETUPTIME = 40NS
+   HOLDTIME = 140NS
+   WHEN = { RESET!='1 & PSENABLE!='1 }
*
.ENDS
*
*$
*-------------------------------------------------------------------------
* CD4019A  CMOS QUAD AND/OR SELECT GATE
*
* The CMOS Integrated Circuits Data Book, 1983, RCA Solid State
* tvh	10/2/89 	Update interface and model names
*
.subckt CD4019A  KA KB A1 A2 A3 A4 B1 B2 B3 B4 D1 D2 D3 D4
+	optional: VDD=$G_CD4000_VDD VSS=$G_CD4000_VSS
+	params: MNTYMXDLY=0 IO_LEVEL=0
U1 bufa(2) VDD VSS
+	KA KB   SA SB 
+	D0_GATE IO_4000A IO_LEVEL={IO_LEVEL} 
U2 ao(2,2) VDD VSS
+	SA A1 SB B1   D1 
+	D_CD4019A IO_4000A MNTYMXDLY={MNTYMXDLY} IO_LEVEL={IO_LEVEL} 
U3 ao(2,2) VDD VSS
+	SA A2 SB B2   D2 
+	D_CD4019A IO_4000A MNTYMXDLY={MNTYMXDLY} IO_LEVEL={IO_LEVEL} 
U4 ao(2,2) VDD VSS
+	SA A3 SB B3   D3 
+	D_CD4019A IO_4000A MNTYMXDLY={MNTYMXDLY} IO_LEVEL={IO_LEVEL} 
U5 ao(2,2) VDD VSS
+	SA A4 SB B4   D4 
+	D_CD4019A IO_4000A MNTYMXDLY={MNTYMXDLY} IO_LEVEL={IO_LEVEL} 
.ends
*
.model D_CD4019A ugate (
+	TPLHTY=100NS	TPHLTY=100NS
+	TPLHMX=300NS	TPHLMX=300NS
+	)
*$
*----------
* CD4019B  CMOS QUAD AND/OR SELECT GATE
*
* The CMOS Integrated Circuits Data Book, 1983, RCA Solid State
* tvh	10/2/89 	Update interface and model names
*
.subckt CD4019B  KA KB A1 A2 A3 A4 B1 B2 B3 B4 D1 D2 D3 D4
+	optional: VDD=$G_CD4000_VDD VSS=$G_CD4000_VSS
+	params: MNTYMXDLY=0 IO_LEVEL=0
U1 bufa(2) VDD VSS
+	KA KB   SA SB 
+	D0_GATE IO_4000B IO_LEVEL={IO_LEVEL} 
U2 ao(2,2) VDD VSS
+	SA A1 SB B1   D1 
+	D_CD4019B IO_4000B MNTYMXDLY={MNTYMXDLY} IO_LEVEL={IO_LEVEL} 
U3 ao(2,2) VDD VSS
+	SA A2 SB B2   D2 
+	D_CD4019B IO_4000B MNTYMXDLY={MNTYMXDLY} IO_LEVEL={IO_LEVEL} 
U4 ao(2,2) VDD VSS
+	SA A3 SB B3   D3 
+	D_CD4019B IO_4000B MNTYMXDLY={MNTYMXDLY} IO_LEVEL={IO_LEVEL} 
U5 ao(2,2) VDD VSS
+	SA A4 SB B4   D4 
+	D_CD4019B IO_4000B MNTYMXDLY={MNTYMXDLY} IO_LEVEL={IO_LEVEL} 
.ends
*
.model D_CD4019B ugate (
+	TPLHTY=150NS	TPHLTY=150NS
+	TPLHMX=300NS	TPHLMX=300NS
+	)
*$
*-------------------------------------------------------------------------
* CD4020A  CMOS Ripple-Carry Binary Counter/Dividers
*
* The CMOS Intergrated Circuits Databook, 1983, RCA Solid State
* atl	10/3/89		Update interface and model names
*
.subckt CD4020A  INPUT RESET Q1 Q4 Q5 Q6 Q7 Q8 Q9 Q10 Q11 Q12 Q13 Q14
+	optional: VDD=$G_CD4000_VDD VSS=$G_CD4000_VSS
+	params: MNTYMXDLY=0 IO_LEVEL=0
UCLRB inv VDD VSS
+	RESET   CLRB 
+	D0_GATE IO_4000A IO_LEVEL={IO_LEVEL} 
UT anda(2,12) VDD VSS
+	Q1I	Q2I
+	T3	Q3I
+	T4	Q4I
+	T5	Q5I
+	T6	Q6I
+	T7	Q7I
+	T8	Q8I
+	T9	Q9I
+	T10	Q10I
+	T11	Q11I
+	T12	Q12I
+	T13	Q13I
+	T3	T4	T5	T6	T7	T8
+	T9	T10	T11	T12	T13	T14
+	D0_GATE IO_4000A MNTYMXDLY={MNTYMXDLY} 
UQ1I jkff(1) VDD VSS
+	$D_HI CLRB INPUT   $D_HI $D_HI   Q1I $D_NC 
+	D_CD4020A_1 IO_4000A MNTYMXDLY={MNTYMXDLY} IO_LEVEL={IO_LEVEL} 
UQ2I jkff(1) VDD VSS
+	$D_HI CLRB Q1I   $D_HI $D_HI   Q2I $D_NC 
+	D_CD4020A_2 IO_4000A MNTYMXDLY={MNTYMXDLY} 
UQ3I jkff(1) VDD VSS
+	$D_HI CLRB T3   $D_HI $D_HI   Q3I $D_NC 
+	D_CD4020A_2 IO_4000A MNTYMXDLY={MNTYMXDLY} 
UQ4I jkff(1) VDD VSS
+	$D_HI CLRB T4   $D_HI $D_HI   Q4I $D_NC 
+	D_CD4020A_2 IO_4000A MNTYMXDLY={MNTYMXDLY} 
UQ5I jkff(1) VDD VSS
+	$D_HI CLRB T5   $D_HI $D_HI   Q5I $D_NC 
+	D_CD4020A_2 IO_4000A MNTYMXDLY={MNTYMXDLY} 
UQ6I jkff(1) VDD VSS
+	$D_HI CLRB T6   $D_HI $D_HI   Q6I $D_NC 
+	D_CD4020A_2 IO_4000A MNTYMXDLY={MNTYMXDLY} 
UQ7I jkff(1) VDD VSS
+	$D_HI CLRB T7   $D_HI $D_HI   Q7I $D_NC 
+	D_CD4020A_2 IO_4000A MNTYMXDLY={MNTYMXDLY} 
UQ8I jkff(1) VDD VSS
+	$D_HI CLRB T8   $D_HI $D_HI   Q8I $D_NC 
+	D_CD4020A_2 IO_4000A MNTYMXDLY={MNTYMXDLY} 
UQ9I jkff(1) VDD VSS
+	$D_HI CLRB T9   $D_HI $D_HI   Q9I $D_NC 
+	D_CD4020A_2 IO_4000A MNTYMXDLY={MNTYMXDLY} 
UQ10I jkff(1) VDD VSS
+	$D_HI CLRB T10   $D_HI $D_HI   Q10I $D_NC 
+	D_CD4020A_2 IO_4000A MNTYMXDLY={MNTYMXDLY} 
UQ11I jkff(1) VDD VSS
+	$D_HI CLRB T11   $D_HI $D_HI   Q11I $D_NC 
+	D_CD4020A_2 IO_4000A MNTYMXDLY={MNTYMXDLY} 
UQ12I jkff(1) VDD VSS
+	$D_HI CLRB T12   $D_HI $D_HI   Q12I $D_NC 
+	D_CD4020A_2 IO_4000A MNTYMXDLY={MNTYMXDLY} 
UQ13I jkff(1) VDD VSS
+	$D_HI CLRB T13   $D_HI $D_HI   Q13I $D_NC 
+	D_CD4020A_2 IO_4000A MNTYMXDLY={MNTYMXDLY} 
UQ14I jkff(1) VDD VSS
+	$D_HI CLRB T14   $D_HI $D_HI   Q14I $D_NC 
+	D_CD4020A_2 IO_4000A MNTYMXDLY={MNTYMXDLY} 
UQ bufa(12) VDD VSS
+	Q1I	Q4I	Q5I	Q6I	Q7I	Q8I
+	Q9I	Q10I	Q11I	Q12I	Q13I	Q14I
+	Q1	Q4	Q5	Q6	Q7	Q8
+	Q9	Q10	Q11	Q12	Q13	Q14
+	D_CD4020A_3 IO_4000A MNTYMXDLY={MNTYMXDLY} IO_LEVEL={IO_LEVEL} 
.ends
*
.model D_CD4020A_1 ueff (
+	twclklmn=500ns	twclkhmn=500ns
+	twpclmn=3000ns	tppcqhlty=1550ns
+	tppcqhlmx=2850ns
+	)
.model D_CD4020A_2 ueff (
+	twpclmn=3000ns	tppcqhlty=1550ns
+	tppcqhlmx=2850ns
+	)
.model D_CD4020A_3 ugate (
+	tplhty=450ns	tplhmx=650ns
+	tphlty=450ns	tphlmx=600ns
+	)
*$
*---------
* CD4020B  CMOS Ripple-Carry Binary Counter/Dividers
*
* The CMOS Intergrated Circuits Databook, 1983, RCA Solid State
* atl	10/3/89		Update interface and model names
*
.subckt CD4020B  INPUT RESET Q1 Q4 Q5 Q6 Q7 Q8 Q9 Q10 Q11 Q12 Q13 Q14
+	optional: VDD=$G_CD4000_VDD VSS=$G_CD4000_VSS
+	params: MNTYMXDLY=0 IO_LEVEL=0
UBUF buf VDD VSS
+	INPUT   IN 
+	D0_GATE IO_4000B_ST IO_LEVEL={IO_LEVEL} 
UCLRB inv VDD VSS
+	RESET   CLRB 
+	D0_GATE IO_4000B IO_LEVEL={IO_LEVEL} 
UT anda(2,12) VDD VSS
+	Q1ID	Q2I
+	T3	Q3I
+	T4	Q4I
+	T5	Q5I
+	T6	Q6I
+	T7	Q7I
+	T8	Q8I
+	T9	Q9I
+	T10	Q10I
+	T11	Q11I
+	T12	Q12I
+	T13	Q13I
+	T3	T4	T5	T6	T7	T8
+	T9	T10	T11	T12	T13	T14
+	D_CD4020B_1 IO_4000B MNTYMXDLY={MNTYMXDLY} 
UQ1ID buf VDD VSS
+	Q1I   Q1ID 
+	D_CD4020B_1 IO_4000B MNTYMXDLY={MNTYMXDLY} 
UQ1I jkff(1) VDD VSS
+	$D_HI CLRB IN   $D_HI $D_HI   Q1I $D_NC 
+	D_CD4020B_2 IO_4000B MNTYMXDLY={MNTYMXDLY} IO_LEVEL={IO_LEVEL} 
UQ2I jkff(1) VDD VSS
+	$D_HI CLRB Q1ID   $D_HI $D_HI   Q2I $D_NC 
+	D_CD4020B_3 IO_4000B MNTYMXDLY={MNTYMXDLY} 
UQ3I jkff(1) VDD VSS
+	$D_HI CLRB T3   $D_HI $D_HI   Q3I $D_NC 
+	D_CD4020B_3 IO_4000B MNTYMXDLY={MNTYMXDLY} 
UQ4I jkff(1) VDD VSS
+	$D_HI CLRB T4   $D_HI $D_HI   Q4I $D_NC 
+	D_CD4020B_3 IO_4000B MNTYMXDLY={MNTYMXDLY} 
UQ5I jkff(1) VDD VSS
+	$D_HI CLRB T5   $D_HI $D_HI   Q5I $D_NC 
+	D_CD4020B_3 IO_4000B MNTYMXDLY={MNTYMXDLY} 
UQ6I jkff(1) VDD VSS
+	$D_HI CLRB T6   $D_HI $D_HI   Q6I $D_NC 
+	D_CD4020B_3 IO_4000B MNTYMXDLY={MNTYMXDLY} 
UQ7I jkff(1) VDD VSS
+	$D_HI CLRB T7   $D_HI $D_HI   Q7I $D_NC 
+	D_CD4020B_3 IO_4000B MNTYMXDLY={MNTYMXDLY} 
UQ8I jkff(1) VDD VSS
+	$D_HI CLRB T8   $D_HI $D_HI   Q8I $D_NC 
+	D_CD4020B_3 IO_4000B MNTYMXDLY={MNTYMXDLY} 
UQ9I jkff(1) VDD VSS
+	$D_HI CLRB T9   $D_HI $D_HI   Q9I $D_NC 
+	D_CD4020B_3 IO_4000B MNTYMXDLY={MNTYMXDLY} 
UQ10I jkff(1) VDD VSS
+	$D_HI CLRB T10   $D_HI $D_HI   Q10I $D_NC 
+	D_CD4020B_3 IO_4000B MNTYMXDLY={MNTYMXDLY} 
UQ11I jkff(1) VDD VSS
+	$D_HI CLRB T11   $D_HI $D_HI   Q11I $D_NC 
+	D_CD4020B_3 IO_4000B MNTYMXDLY={MNTYMXDLY} 
UQ12I jkff(1) VDD VSS
+	$D_HI CLRB T12   $D_HI $D_HI   Q12I $D_NC 
+	D_CD4020B_3 IO_4000B MNTYMXDLY={MNTYMXDLY} 
UQ13I jkff(1) VDD VSS
+	$D_HI CLRB T13   $D_HI $D_HI   Q13I $D_NC 
+	D_CD4020B_3 IO_4000B MNTYMXDLY={MNTYMXDLY} 
UQ14I jkff(1) VDD VSS
+	$D_HI CLRB T14   $D_HI $D_HI   Q14I $D_NC 
+	D_CD4020B_3 IO_4000B MNTYMXDLY={MNTYMXDLY} 
UQ1 jkff(1) VDD VSS
+	$D_HI CLRB IN   $D_HI $D_HI   Q1 $D_NC 
+	D_CD4020B_4 IO_4000B MNTYMXDLY={MNTYMXDLY} IO_LEVEL={IO_LEVEL} 
UQ bufa(11) VDD VSS
+	Q4I	Q5I	Q6I	Q7I	Q8I	Q9I	Q10I	Q11I	Q12I
+	Q13I	Q14I
+	Q4	Q5	Q6	Q7	Q8	Q9	Q10	Q11	Q12
+	Q13	Q14
+	D_CD4020B_1 IO_4000B MNTYMXDLY={MNTYMXDLY} IO_LEVEL={IO_LEVEL} 
.ends
*
.model D_CD4020B_1 ugate (
+	tplhty=100ns	tplhmx=200ns
+	tphlty=100ns	tphlmx=200ns
+	)