* Library of Darlington Transistor "macromodels"
*
*  Copyright OrCAD, Inc. 1998 All Rights Reserved.
*
* $Revision:   1.1  $
* $Author:   rperez  $
* $Date:   17 Nov 1998 10:46:20  $
*
*$
* BCV46 Darlington Transistor "macromodel" subcircuit
* created using Parts release 8.1 on 01/21/98 at 10:51
* Parts is an OrCAD product.
*
* connections:    Collector
*                 |  Base
*                 |  |  Emitter
*                 |  |  |
.SUBCKT BCV46     1  2  3
*
Q1 1 2 4 Q1model
Q2 1 4 3 Q2model .6656
D1 1 3 Dmodel
R1 2 4 10.00E6
R2 4 3 10.00E6
.MODEL Dmodel D
+ IS=10.00E-15 RS=1.000E-3 N=1 XTI=3
+  CJO=10.00E-21 VJ=1 M=.5 FC=.5
.MODEL Q1model PNP
+  IS=45.26E-15 BF=314.6 NF=1 VAF=100
+  IKF=.468 ISE=96.84E-15 NE=1.998 BR=2.029
+  NR=1 VAR=100 IKR=8.438 ISC=87.22E-15
+  NC=2.997 RB=33.27 NK=.4616
+  RE=0 RC=.5943 EG=1.110
+  CJE=17.22E-12 VJE=.35 MJE=.2658 TF=10.00E-9
+  XTF=10 VTF=10 ITF=1 CJC=8.213E-12
+  VJC=.35 MJC=.2487 XCJC=.9 FC=.5
+  TR=10.00E-9
.MODEL Q2model PNP
+  IS=45.26E-15 BF=314.6 NF=1 VAF=100
+  IKF=.468 ISE=96.84E-15 NE=1.998 BR=2.029
+  NR=1 VAR=100 IKR=8.438 ISC=87.22E-15
+  NC=2.997 RB=33.27 NK=.4616
+  RE=0 RC=.5943 EG=1.110
+  CJE=17.22E-12 VJE=.35 MJE=.2658 TF=10.00E-9
+  XTF=10 VTF=10 ITF=1 CJC=0
+  VJC=.35 MJC=.2487 XCJC=.9 FC=.5
+  TR=10.00E-9
.ENDS
*$
***********************************************************
* BCV47 Darlington Transistor "macromodel" subcircuit
* created using Parts release 8.1 on 01/23/98 at 15:34
* Parts is an OrCAD product.
*
* connections:    Collector
*                 |  Base
*                 |  |  Emitter
*                 |  |  |
.SUBCKT BCV47     1  2  3
*
Q1 1 2 4 Q1model
Q2 1 4 3 Q2model 0.820266
D1 3 1 Dmodel
R1 2 4 6.000E9
R2 4 3 6.000E9
.MODEL Dmodel D
+ IS=10.00E-15 RS=1.000E-3 N=1 XTI=3
+  CJO=10.00E-21 VJ=1 M=.5 FC=.5
.MODEL Q1model NPN
+  IS=2.888205e-014 BF=327.434 NF=1 VAF=100
+  IKF=1.21592 ISE=2.917181e-015 NE=1.26311 BR=1.1125
+  NR=1 VAR=100 IKR=4.83078e-005 ISC=1.371550e-014
+  NC=2.00409 RB=19.98 NK=0.675285
+  RE=0 RC=0.018801 EG=1.110
+  CJE=13.3E-12 VJE=0.35 MJE=0.25875 TF=1.00E-9
+  XTF=10 VTF=10 ITF=1 CJC=8.502E-12
+  VJC=.75 MJC=.3333 XCJC=.9 FC=.5
+  TR=1.00E-9
.MODEL Q2model NPN
+  IS=2.888205e-014 BF=327.434 NF=1 VAF=100
+  IKF=1.21592 ISE=2.917181e-015 NE=1.26311 BR=1.1125
+  NR=1 VAR=100 IKR=4.83078e-005 ISC=1.371550e-014
+  NC=2.00409 RB=19.98 NK=0.675285
+  RE=0 RC=0.018801 EG=1.110
+  CJE=13.3E-12 VJE=0.35 MJE=0.25875 TF=1.00E-9
+  XTF=10 VTF=10 ITF=1 CJC=0
+  VJC=.75 MJC=.3333 XCJC=.9 FC=.5
+  TR=1.00E-9
.ENDS
*$
***********************************************************
* BCV49 Darlington Transistor "macromodel" subcircuit
* created using Optimizer release 8.1 on 02/2/98
* Optimizer is an OrCAD product.
*
* connections:    Collector
*                 |  Base
*                 |  |  Emitter
*                 |  |  |
.SUBCKT BCV49     1  2  3
*
Q1 1 2 4 Q1model
Q2 1 4 3 Q2model 0.802
D1 3 1 Dmodel
R1 2 4 30.00E9
R2 4 3 30.00E9
.MODEL Dmodel D
+ IS=10.00E-15 RS=1.000E-3 N=1 XTI=3
+  CJO=10.00E-21 VJ=1 M=.5 FC=.5
.MODEL Q1model NPN
+  IS=2.492442e-014 BF=293.158 NF=1 VAF=100
+  IKF=2.98909 ISE=1.001498e-014 NE=1.41485 BR=10.1119
+  NR=1 VAR=100 IKR=2.75689e-005 ISC=1.094700e-013
+  NC=1.23862 RB=1.84509 NK=0.982404
+  RE=0 RC=0.0010099 EG=1.110
+  CJE=15E-12 VJE=.35 MJE=.2746 TF=1.00E-9
+  XTF=10 VTF=10 ITF=1 CJC=8.5E-12
+  VJC=.35 MJC=.2487 XCJC=.9 FC=.5
+  TR=1.00E-9
.MODEL Q2model NPN
+  IS=2.492442e-014 BF=293.158 NF=1 VAF=100
+  IKF=2.98909 ISE=1.001498e-014 NE=1.41485 BR=10.1119
+  NR=1 VAR=100 IKR=2.75689e-005 ISC=1.094700e-013
+  NC=1.23862 RB=1.84509 NK=0.982404
+  RE=0 RC=0.0010099 EG=1.110
+  CJE=15E-12 VJE=.35 MJE=.2746 TF=1.00E-9
+  XTF=10 VTF=10 ITF=1 CJC=0
+  VJC=.35 MJC=.2487 XCJC=.9 FC=.5
+  TR=1.00E-9
.ENDS
*$
* Motorola 100 Volt 15 Amp Darlington Transistor  07/20/98
*
* connections:    Collector
*                 |  Base
*                 |  |  Emitter
*                 |  |  |
.SUBCKT BDW42     1  2  3
*
Q1 1 2 4 Q1model
Q2 1 4 3 Q2model 1.451
D1 3 1 Dmodel
R1 2 4 8.000E3
R2 4 3 150
.MODEL Dmodel D
+ IS=6.7687E-12
+ N=3.4748
+ RS=1.0000E-3
+ CJO=1.0000E-12
+ M=.3333
+ VJ=.75
+ ISR=100.00E-12
+ BV=120
+ IBV=1.00E-6
+ TT=5.0000E-9
.MODEL Q1model NPN
+  IS=150.7E-15 BF=2.997E3 NF=1 VAF=100
+  IKF=.8407 ISE=1.148E-12 NE=1.337 BR=.1884
+  NR=1 VAR=100 IKR=10.01E-3 ISC=936.7E-15
+  NC=2.940 RB=2.1193 NK=.6388
+  RE=0 RC=0.194791 EG=1.110
+  CJE=105.5E-12 VJE=.7775 MJE=.4512 TF=20.00E-9
+  XTF=1 VTF=10 ITF=10.00E-3 CJC=160.1E-12
+  VJC=.8966 MJC=.3035 XCJC=.9 FC=.5
+  TR=8.00E-6
.MODEL Q2model NPN
+  IS=150.7E-15 BF=2.997E3 NF=1 VAF=100
+  IKF=.8407 ISE=1.148E-12 NE=1.337 BR=.1884
+  NR=1 VAR=100 IKR=10.01E-3 ISC=936.7E-15
+  NC=2.940 RB=2.1193 NK=.6388
+  RE=0 RC=0.194791 EG=1.110
+  CJE=105.5E-12 VJE=.7775 MJE=.4512 TF=20.00E-9
+  XTF=1 VTF=10 ITF=10.00E-3 CJC=0
+  VJC=.8966 MJC=.3035 XCJC=.9 FC=.5
+  TR=8.00E-6
.ENDS
*$
* Motorola 100 Volt 15 Amp Darlington Transistor  07/20/98
*
* connections:    Collector
*                 |  Base
*                 |  |  Emitter
*                 |  |  |
.SUBCKT BDW47     1  2  3
*
Q1 1 2 4 Q1model
Q2 1 4 3 Q2model 20
D1 1 3 Dmodel
R1 2 4 8.000E3
R2 4 3 150
.MODEL Dmodel D
+ IS=6.7687E-12
+ N=3.4748
+ RS=1.0000E-3
+ CJO=1.0000E-12
+ M=.3333
+ VJ=.75
+ ISR=100.00E-12
+ BV=120
+ IBV=1.00E-6
+ TT=5.0000E-9
.MODEL Q1model PNP
+  IS=39.06E-15 BF=2.997E3 NF=1 VAF=100
+  IKF=47.58E-3 ISE=3.255E-12 NE=1.522 BR=499.5
+  NR=1 VAR=100 IKR=19.98 ISC=20.38E-6
+  NC=2.997 RB=36.3932 NK=.5957
+  RE=0 RC=2.02607 EG=1.110
+  CJE=149.9E-12 VJE=1.474 MJE=.5197 TF=10.00E-9
+  XTF=1 VTF=10 ITF=10.00E-3 CJC=246.2E-12
+  VJC=1.500 MJC=.2676 XCJC=.9 FC=.5
+  TR=500.00E-6
.MODEL Q2model PNP
+  IS=39.06E-15 BF=2.997E3 NF=1 VAF=100
+  IKF=47.58E-3 ISE=3.255E-12 NE=1.522 BR=499.5
+  NR=1 VAR=100 IKR=19.98 ISC=20.38E-6
+  NC=2.997 RB=36.3932 NK=.5957
+  RE=0 RC=2.02607 EG=1.110
+  CJE=149.9E-12 VJE=1.474 MJE=.5197 TF=10.00E-9
+  XTF=1 VTF=10 ITF=10.00E-3 CJC=0
+  VJC=1.500 MJC=.2676 XCJC=.9 FC=.5
+  TR=500.00E-6
.ENDS
*$
* Motorola 100 Volt 10 Amp Darlington Transistor  07/20/98
*
* connections:    Collector
*                 |  Base
*                 |  |  Emitter
*                 |  |  |
.SUBCKT BDX33C    1  2  3
*
Q1 1 2 4 Q1model
Q2 1 4 3 Q2model 2.145
D1 3 1 Dmodel
R1 2 4 8.000E3
R2 4 3 60
.MODEL Dmodel D
+ IS=409.70E-21
+ N=3.4748
+ RS=1.0000E-3
+ CJO=1.0000E-12
+ M=.3333
+ VJ=.75
+ ISR=100.00E-12
+ BV=120
+ IBV=1.00E-6
+ TT=5.0000E-9
.MODEL Q1model NPN
+  IS=377.5E-15 BF=1.199E3 NF=1 VAF=100
+  IKF=1.302 ISE=2.247E-12 NE=1.343 BR=69.93
+  NR=1 VAR=100 IKR=27.99 ISC=5.783E-12
+  NC=3.197 RB=3.136 NK=.7371
+  RE=0 RC=.1 EG=1.110
+  CJE=105.3E-12 VJE=.8816 MJE=.486 TF=18.00E-9
+  XTF=1 VTF=10 ITF=10.00E-3 CJC=158.9E-12
+  VJC=.9144 MJC=.2259 XCJC=.9 FC=.5
+  TR=23.00E-9
.MODEL Q2model NPN
+  IS=377.5E-15 BF=1.199E3 NF=1 VAF=100
+  IKF=1.302 ISE=2.247E-12 NE=1.343 BR=69.93
+  NR=1 VAR=100 IKR=27.99 ISC=5.783E-12
+  NC=3.197 RB=3.136 NK=.7371
+  RE=0 RC=.1 EG=1.110
+  CJE=105.3E-12 VJE=.8816 MJE=.486 TF=18.00E-9
+  XTF=1 VTF=10 ITF=10.00E-3 CJC=0
+  VJC=.9144 MJC=.2259 XCJC=.9 FC=.5
+  TR=23.00E-9
.ENDS
*$
* Motorola 100 Volt 10 Amp Darlington Transistor  07/20/98
*
* connections:    Collector
*                 |  Base
*                 |  |  Emitter
*                 |  |  |
.SUBCKT BDX34C    1  2  3
*
Q1 1 2 4 Q1model
Q2 1 4 3 Q2model 2.351
D1 1 3 Dmodel
R1 2 4 8.000E3
R2 4 3 120
.MODEL Dmodel D
+ IS=409.70E-21
+ N=3.4748
+ RS=1.0000E-3
+ CJO=1.0000E-12
+ M=.3333
+ VJ=.75
+ ISR=100.00E-12
+ BV=120
+ IBV=1.00E-6
+ TT=5.0000E-9
.MODEL Q1model PNP
+  IS=720.5E-15 BF=1.199E3 NF=1 VAF=100
+  IKF=.6553 ISE=26.61E-12 NE=1.505 BR=.1272
+  NR=1 VAR=100 IKR=.9738 ISC=284.1E-12
+  NC=1.738 RB=4.180 NK=.704
+  RE=0 RC=83.63E-3 EG=1.110
+  CJE=152.2E-12 VJE=.7257 MJE=.3782 TF=8.0E-9
+  XTF=1 VTF=10 ITF=10.00E-3 CJC=241.5E-12
+  VJC=2 MJC=.2902 XCJC=.9 FC=.5
+  TR=17.0E-6
.MODEL Q2model PNP
+  IS=720.5E-15 BF=1.199E3 NF=1 VAF=100
+  IKF=.6553 ISE=26.61E-12 NE=1.505 BR=.1272
+  NR=1 VAR=100 IKR=.9738 ISC=284.1E-12
+  NC=1.738 RB=4.180 NK=.704
+  RE=0 RC=83.63E-3 EG=1.110
+  CJE=152.2E-12 VJE=.7257 MJE=.3782 TF=8.0E-9
+  XTF=1 VTF=10 ITF=10.00E-3 CJC=0
+  VJC=2 MJC=.2902 XCJC=.9 FC=.5
+  TR=17.0E-6
.ENDS
*$
* Motorola 100 Volt 8 Amp Darlington Transistor  07/20/98
*
* connections:    Collector
*                 |  Base
*                 |  |  Emitter
*                 |  |  |
.SUBCKT BDX53C    1  2  3
*
Q1 1 2 4 Q1model
Q2 1 4 3 Q2model 2.145
D1 3 1 Dmodel
R1 2 4 8.000E3
R2 4 3 60
.MODEL Dmodel D
+ IS=3.4721E-12
+ N=3.4748
+ RS=1.0000E-3
+ CJO=1.0000E-12
+ M=.3333
+ VJ=.75
+ ISR=100.00E-12
+ BV=120
+ IBV=1.00E-6
+ TT=5.0000E-9
.MODEL Q1model NPN
+  IS=377.5E-15 BF=1.199E3 NF=1 VAF=100
+  IKF=1.302 ISE=2.247E-12 NE=1.343 BR=69.93
+  NR=1 VAR=100 IKR=27.99 ISC=5.783E-12
+  NC=3.197 RB=3.136 NK=.7371
+  RE=0 RC=.1 EG=1.110
+  CJE=105.3E-12 VJE=.8816 MJE=.486 TF=18.00E-9
+  XTF=1 VTF=10 ITF=10.00E-3 CJC=158.9E-12
+  VJC=.9144 MJC=.2259 XCJC=.9 FC=.5
+  TR=23.00E-9
.MODEL Q2model NPN
+  IS=377.5E-15 BF=1.199E3 NF=1 VAF=100
+  IKF=1.302 ISE=2.247E-12 NE=1.343 BR=69.93
+  NR=1 VAR=100 IKR=27.99 ISC=5.783E-12
+  NC=3.197 RB=3.136 NK=.7371
+  RE=0 RC=.1 EG=1.110
+  CJE=105.3E-12 VJE=.8816 MJE=.486 TF=18.00E-9
+  XTF=1 VTF=10 ITF=10.00E-3 CJC=0
+  VJC=.9144 MJC=.2259 XCJC=.9 FC=.5
+  TR=23.00E-9
.ENDS
*$
* Motorola 100 Volt 8 Amp Darlington Transistor  07/20/98
*
* connections:    Collector
*                 |  Base
*                 |  |  Emitter
*                 |  |  |
.SUBCKT BDX54C    1  2  3
*
Q1 1 2 4 Q1model
Q2 1 4 3 Q2model 2.351
D1 1 3 Dmodel
R1 2 4 8.000E3
R2 4 3 120
.MODEL Dmodel D
+ IS=3.4721E-12
+ N=3.4748
+ RS=1.0000E-3
+ CJO=1.0000E-12
+ M=.3333
+ VJ=.75
+ ISR=100.00E-12
+ BV=120
+ IBV=1.00E-6
+ TT=5.0000E-9
.MODEL Q1model PNP
+  IS=720.5E-15 BF=1.199E3 NF=1 VAF=100
+  IKF=.6553 ISE=26.61E-12 NE=1.505 BR=.1272
+  NR=1 VAR=100 IKR=.9738 ISC=284.1E-12
+  NC=1.738 RB=4.180 NK=.704
+  RE=0 RC=83.63E-3 EG=1.110
+  CJE=152.2E-12 VJE=.7257 MJE=.3782 TF=18.00E-9
+  XTF=1 VTF=10 ITF=10.00E-3 CJC=241.5E-12
+  VJC=2 MJC=.2902 XCJC=.9 FC=.5
+  TR=23.00E-9
.MODEL Q2model PNP
+  IS=720.5E-15 BF=1.199E3 NF=1 VAF=100
+  IKF=.6553 ISE=26.61E-12 NE=1.505 BR=.1272
+  NR=1 VAR=100 IKR=.9738 ISC=284.1E-12
+  NC=1.738 RB=4.180 NK=.704
+  RE=0 RC=83.63E-3 EG=1.110
+  CJE=152.2E-12 VJE=.7257 MJE=.3782 TF=18.00E-9
+  XTF=1 VTF=10 ITF=10.00E-3 CJC=0
+  VJC=2 MJC=.2902 XCJC=.9 FC=.5
+  TR=23.00E-9
.ENDS
*$
* Motorola 600 Volt 56 Amp Darlington Transistor  07/20/98
*
* connections:    Collector
*                 |  Base
*                 |  |  Emitter
*                 |  |  |
.SUBCKT BUT33     1  2  3
*
Q1 1 2 4 Q1model
Q2 1 4 3 Q2model .8
D1 3 1 Dmodel
D2 4 2 Dmodel
R1 2 4 100
R2 4 3 16
.MODEL Dmodel D
+ IS=3.3635E-18
+ N=3.4748
+ RS=1.0000E-3
+ CJO=1.0000E-12
+ M=.3333
+ VJ=.75
+ ISR=100.00E-12
+ BV=750
+ IBV=1.00E-6
+ TT=5.0000E-9
.MODEL Q1model NPN
+  IS=30.00E-12 BF=97.10 NF=1 VAF=100
+  IKF=2.966 ISE=249.8E-12 NE=1.263 BR=.1584
+  NR=1 VAR=100 IKR=3.167E-3 ISC=30.75E-9
+  NC=1.744 RB=40.51E-3 NK=.4887
+  RE=0 RC=40.27E-3 EG=1.110
+  CJE=10.00E-12 VJE=.75 MJE=.33 TF=135.0E-9
+  XTF=1 VTF=10 ITF=10.00E-3 CJC=10.00E-12
+  VJC=.75 MJC=.33 XCJC=.9 FC=.5
+  TR=5.50E-5
.MODEL Q2model NPN
+  IS=30.00E-12 BF=97.10 NF=1 VAF=100
+  IKF=2.966 ISE=249.8E-12 NE=1.263 BR=.1584
+  NR=1 VAR=100 IKR=3.167E-3 ISC=30.75E-9
+  NC=1.744 RB=40.51E-3 NK=.4887
+  RE=0 RC=40.27E-3 EG=1.110
+  CJE=10.00E-12 VJE=.75 MJE=.33 TF=135.0E-9
+  XTF=1 VTF=10 ITF=10.00E-3 CJC=0
+  VJC=.75 MJC=.33 XCJC=.9 FC=.5
+  TR=5.50E-5
.ENDS
*$
* Motorola 850 Volt 50 Amp Darlington Transistor  07/20/98
*
* connections:    Collector
*                 |  Base
*                 |  |  Emitter
*                 |  |  |
.SUBCKT BUT34     1  2  3
*
Q1 1 2 4 Q1model
Q2 1 4 3 Q2model .8
D1 3 1 Dmodel
D2 4 2 Dmodel
R1 2 4 100
R2 4 3 16
.MODEL Dmodel D
+ IS=2.9246E-18
+ N=3.4748
+ RS=1.0000E-3
+ CJO=1.0000E-12
+ M=.3333
+ VJ=.75
+ ISR=100.00E-12
+ BV=937
+ IBV=1.00E-6
+ TT=5.0000E-9
.MODEL Q1model NPN
+  IS=30.00E-12 BF=97.10 NF=1 VAF=100
+  IKF=2.966 ISE=249.8E-12 NE=1.263 BR=.1584
+  NR=1 VAR=100 IKR=3.167E-3 ISC=83.59E-9
+  NC=1.744 RB=40.49E-3 NK=.4887
+  RE=0 RC=40.27E-3 EG=1.110
+  CJE=10.00E-12 VJE=.75 MJE=.33 TF=130.0E-9
+  XTF=1 VTF=10 ITF=10.00E-3 CJC=1.00E-12
+  VJC=.75 MJC=.33 XCJC=.9 FC=.5
+  TR=4.50E-5
.MODEL Q2model NPN
+  IS=30.00E-12 BF=97.10 NF=1 VAF=100
+  IKF=2.966 ISE=249.8E-12 NE=1.263 BR=.1584
+  NR=1 VAR=100 IKR=3.167E-3 ISC=83.59E-9
+  NC=1.744 RB=40.49E-3 NK=.4887
+  RE=0 RC=40.27E-3 EG=1.110
+  CJE=10.00E-12 VJE=.75 MJE=.33 TF=130.0E-9
+  XTF=1 VTF=10 ITF=10.00E-3 CJC=0
+  VJC=.75 MJC=.33 XCJC=.9 FC=.5
+  TR=4.50E-5
.ENDS
*$
* Motorola 350 Volt 20 Amp Darlington Transistor  07/20/98
*
* connections:    Collector
*                 |  Base
*                 |  |  Emitter
*                 |  |  |
.SUBCKT MJ10000   1  2  3
*
Q1 1 2 4 Q1model
Q2 1 4 3 Q2model 1.821
D1 3 1 Dmodel
D2 4 2 Dmodel
R1 2 4 100
R2 4 3 15
.MODEL Dmodel D
+ IS=303.82E-12
+ N=4.7736
+ RS=1.0000E-3
+ CJO=1.0000E-12
+ M=.3333
+ VJ=.75
+ ISR=100.00E-12
+ BV=437
+ IBV=1.00E-6
+ TT=5.0000E-9
.MODEL Q1model NPN
+  IS=83.95E-15 BF=140.4 NF=1 VAF=100
+  IKF=1.014 ISE=5.508E-12 NE=1.338 BR=.7915
+  NR=1 VAR=100 IKR=1.136 ISC=893.2E-12
+  NC=1.999 RB=0.240963 NK=.5374
+  RE=0 RC=0.124458 EG=1.110
+  CJE=2.000E-12 VJE=.75 MJE=.33 TF=30.0E-9
+  XTF=1 VTF=10 ITF=10.00E-3 CJC=821.5E-12
+  VJC=.35 MJC=.4135 XCJC=.9 FC=.5
+  TR=4.0E-6
.MODEL Q2model NPN
+  IS=83.95E-15 BF=140.4 NF=1 VAF=100
+  IKF=1.014 ISE=5.508E-12 NE=1.338 BR=.7915
+  NR=1 VAR=100 IKR=1.136 ISC=893.2E-12
+  NC=1.999 RB=0.240963 NK=.5374
+  RE=0 RC=0.124458 EG=1.110
+  CJE=2.000E-12 VJE=.75 MJE=.33 TF=30.0E-9
+  XTF=1 VTF=10 ITF=10.00E-3 CJC=0
+  VJC=.35 MJC=.4135 XCJC=.9 FC=.5
+  TR=4.0E-6
.ENDS
*$
* Motorola 400 Volt 20 Amp Darlington Transistor  07/20/98
*
* connections:    Collector
*                 |  Base
*                 |  |  Emitter
*                 |  |  |
.SUBCKT MJ10005   1  2  3
*
Q1 1 2 4 Q1model
Q2 1 4 3 Q2model 1.821
D1 3 1 Dmodel
D2 4 2 Dmodel
R1 2 4 100
R2 4 3 15
.MODEL Dmodel D
+ IS=303.82E-12
+ N=4.7736
+ RS=1.0000E-3
+ CJO=1.0000E-12
+ M=.3333
+ VJ=.75
+ ISR=100.00E-12
+ BV=500
+ IBV=1.00E-6
+ TT=5.0000E-9
.MODEL Q1model NPN
+  IS=83.95E-15 BF=140.4 NF=1 VAF=100
+  IKF=1.014 ISE=5.508E-12 NE=1.338 BR=.7915
+  NR=1 VAR=100 IKR=1.136 ISC=893.2E-12
+  NC=1.999 RB=0.240963 NK=.5374
+  RE=0 RC=0.124458 EG=1.110
+  CJE=2.000E-12 VJE=.75 MJE=.33 TF=30E-9
+  XTF=1 VTF=10 ITF=10.00E-3 CJC=821.5E-12
+  VJC=.35 MJC=.4135 XCJC=.9 FC=.5
+  TR=1.25E-6
.MODEL Q2model NPN
+  IS=83.95E-15 BF=140.4 NF=1 VAF=100
+  IKF=1.014 ISE=5.508E-12 NE=1.338 BR=.7915
+  NR=1 VAR=100 IKR=1.136 ISC=893.2E-12
+  NC=1.999 RB=0.240963 NK=.5374
+  RE=0 RC=0.124458 EG=1.110
+  CJE=2.000E-12 VJE=.75 MJE=.33 TF=30E-9
+  XTF=1 VTF=10 ITF=10.00E-3 CJC=0
+  VJC=.35 MJC=.4135 XCJC=.9 FC=.5
+  TR=1.25E-6
.ENDS
*$
* Motorola 400 Volt 10 Amp Darlington Transistor  07/20/98
*
* connections:    Collector
*                 |  Base
*                 |  |  Emitter
*                 |  |  |
.SUBCKT MJ10007   1  2  3
*
Q1 1 2 4 Q1model
Q2 1 4 3 Q2model 1.862
D1 3 1 Dmodel
D2 4 2 Dmodel
R1 2 4 100
R2 4 3 15
.MODEL Dmodel D
+ IS=16.833E-15
+ N=3.4748
+ RS=1.0000E-3
+ CJO=1.0000E-12
+ M=.3333
+ VJ=.75
+ ISR=100.00E-12
+ BV=500
+ IBV=1.00E-6
+ TT=5.0000E-9
.MODEL Q1model NPN
+  IS=38.94E-15 BF=15.45 NF=1 VAF=100
+  IKF=.5594 ISE=345.0E-15 NE=1.998 BR=69.93
+  NR=1 VAR=100 IKR=27.97 ISC=39.26E-15
+  NC=3.156 RB=.8899 NK=.3435
+  RE=0 RC=0 EG=1.110
+  CJE=10.00E-12 VJE=.75 MJE=.33 TF=47.000E-9
+  XTF=1 VTF=10 ITF=10.00E-3 CJC=462.5E-12
+  VJC=.1988 MJC=.3552 XCJC=.9 FC=.5
+  TR=10E-9
.MODEL Q2model NPN
+  IS=38.94E-15 BF=15.45 NF=1 VAF=100
+  IKF=.5594 ISE=345.0E-15 NE=1.998 BR=69.93
+  NR=1 VAR=100 IKR=27.97 ISC=39.26E-15
+  NC=3.156 RB=.8899 NK=.3435
+  RE=0 RC=0 EG=1.110
+  CJE=10.00E-12 VJE=.75 MJE=.33 TF=47.000E-9
+  XTF=1 VTF=10 ITF=10.00E-3 CJC=0
+  VJC=.1988 MJC=.3552 XCJC=.9 FC=.5
+  TR=10E-9
.ENDS
*$
* Motorola 500 Volt 20 Amp Darlington Transistor  07/20/98
*
* connections:    Collector
*                 |  Base
*                 |  |  Emitter
*                 |  |  |
.SUBCKT MJ10009   1  2  3
*
Q1 1 2 4 Q1model
Q2 1 4 3 Q2model 1.669
D1 3 1 Dmodel
D2 4 2 Dmodel
R1 2 4 100
R2 4 3 15
.MODEL Dmodel D
+ IS=303.82E-12
+ N=4.7736
+ RS=1.0000E-3
+ CJO=1.0000E-12
+ M=.3333
+ VJ=.75
+ ISR=100.00E-12
+ BV=625
+ IBV=1.00E-6
+ TT=5.0000E-9
.MODEL Q1model NPN
+  IS=149.9E-15 BF=84.51 NF=1 VAF=100
+  IKF=.5525 ISE=2.194E-12 NE=1.265 BR=1
+  NR=1 VAR=100 IKR=.1 ISC=100.0E-15
+  NC=2 RB=0.128221 NK=.4979
+  RE=0 RC=0.128228 EG=1.110
+  CJE=2.000E-12 VJE=.75 MJE=.33 TF=100.000E-9
+  XTF=1 VTF=10 ITF=10.00E-3 CJC=821.5E-12
+  VJC=.35 MJC=.4135 XCJC=.9 FC=.5
+  TR=1E-6
.MODEL Q2model NPN
+  IS=149.9E-15 BF=84.51 NF=1 VAF=100
+  IKF=.5525 ISE=2.194E-12 NE=1.265 BR=1
+  NR=1 VAR=100 IKR=.1 ISC=100.0E-15
+  NC=2 RB=0.128221 NK=.4979
+  RE=0 RC=0.128228 EG=1.110
+  CJE=2.000E-12 VJE=.75 MJE=.33 TF=100.000E-9
+  XTF=1 VTF=10 ITF=10.00E-3 CJC=0
+  VJC=.35 MJC=.4135 XCJC=.9 FC=.5
+  TR=1E-6
.ENDS
*$
* Motorola 400 Volt 10 Amp Darlington Transistor  07/20/98
*
* connections:    Collector
*                 |  Base
*                 |  |  Emitter
*                 |  |  |
.SUBCKT MJ10012   1  2  3
*
Q1 1 2 4 Q1model
Q2 1 4 3 Q2model .7739
D1 3 1 Dmodel
R1 2 4 1.000E3
R2 4 3 30
.MODEL Dmodel D
+ IS=2.4193E-9
+ N=3.4748
+ RS=1.0000E-3
+ CJO=1.0000E-12
+ M=.3333
+ VJ=.75
+ ISR=100.00E-12
+ BV=500
+ IBV=1.00E-6
+ TT=5.0000E-9
.MODEL Q1model NPN
+  IS=507.9E-15 BF=540.8 NF=1 VAF=100
+  IKF=3.031 ISE=3.816E-12 NE=1.270 BR=69.93
+  NR=1 VAR=100 IKR=27.97 ISC=626.5E-12
+  NC=3.197 RB=.15 NK=.6925
+  RE=0 RC=50.34E-3 EG=1.110
+  CJE=10.00E-12 VJE=.75 MJE=.33 TF=600.000E-9
+  XTF=1 VTF=10 ITF=10.00E-3 CJC=400.8E-12
+  VJC=.75 MJC=.3333 XCJC=.9 FC=.5
+  TR=100.000E-9
.MODEL Q2model NPN
+  IS=507.9E-15 BF=540.8 NF=1 VAF=100
+  IKF=3.031 ISE=3.816E-12 NE=1.270 BR=69.93
+  NR=1 VAR=100 IKR=27.97 ISC=626.5E-12
+  NC=3.197 RB=.15 NK=.6925
+  RE=0 RC=50.34E-3 EG=1.110
+  CJE=10.00E-12 VJE=.75 MJE=.33 TF=600.000E-9
+  XTF=1 VTF=10 ITF=10.00E-3 CJC=0
+  VJC=.75 MJC=.3333 XCJC=.9 FC=.5
+  TR=100.000E-9
.ENDS
*$
* Motorola 400 Volt 50 Amp Darlington Transistor  07/20/98
*
* connections:    Collector
*                 |  Base
*                 |  |  Emitter
*                 |  |  |
.SUBCKT MJ10015   1  2  3
*
Q1 1 2 4 Q1model
Q2 1 4 3 Q2model 14.96
D1 3 1 Dmodel
D2 4 2 Dmodel
R1 2 4 50
R2 4 3 8
.MODEL Dmodel D
+ IS=11.665E-12
+ N=3.4038
+ RS=1.0000E-3
+ CJO=1.0000E-12
+ M=.3333
+ VJ=.75
+ ISR=100.00E-12
+ BV=625
+ IBV=1.00E-6
+ TT=5.0000E-9
.MODEL Q1model NPN
+  IS=993.0E-18 BF=104.4 NF=1 VAF=100
+  IKF=.3882 ISE=387.2E-15 NE=1.372 BR=3.982
+  NR=1 VAR=100 IKR=13.46 ISC=197.3E-15
+  NC=1 RB=0.100134 NK=.5382
+  RE=0 RC=0.157858 EG=1.110
+  CJE=2.000E-12 VJE=.75 MJE=.33 TF=60.00E-9
+  XTF=1 VTF=10 ITF=10.00E-3 CJC=1.540E-9
+  VJC=.35 MJC=.3287 XCJC=.9 FC=.5
+  TR=50.00E-5
.MODEL Q2model NPN
+  IS=993.0E-18 BF=104.4 NF=1 VAF=100
+  IKF=.3882 ISE=387.2E-15 NE=1.372 BR=3.982
+  NR=1 VAR=100 IKR=13.46 ISC=197.3E-15
+  NC=1 RB=0.100134 NK=.5382
+  RE=0 RC=0.157858 EG=1.110
+  CJE=2.000E-12 VJE=.75 MJE=.33 TF=60.00E-9
+  XTF=1 VTF=10 ITF=10.00E-3 CJC=0
+  VJC=.35 MJC=.3287 XCJC=.9 FC=.5
+  TR=50.00E-5
.ENDS
*$
* Motorola 200 Volt 60 Amp Darlington Transistor  07/20/98
*
* connections:    Collector
*                 |  Base
*                 |  |  Emitter
*                 |  |  |
.SUBCKT MJ10020   1  2  3
*
Q1 1 2 4 Q1model
Q2 1 4 3 Q2model 6.456
D1 3 1 Dmodel
D2 4 2 Dmodel
R1 2 4 100
R2 4 3 15
.MODEL Dmodel D
+ IS=8.1946E-12
+ N=3.3012
+ RS=1.0000E-3
+ CJO=1.0000E-12
+ M=.3333
+ VJ=.75
+ ISR=100.00E-12
+ BV=312
+ IBV=1.00E-6
+ TT=5.0000E-9
.MODEL Q1model NPN
+  IS=94.11E-15 BF=431.2 NF=1 VAF=100
+  IKF=.9138 ISE=14.63E-12 NE=1.419 BR=1.085
+  NR=1 VAR=100 IKR=1.638 ISC=8.355E-9
+  NC=1.743 RB=0.322163 NK=.5678
+  RE=0 RC=0.117837 EG=1.110
+  CJE=2.000E-12 VJE=.75 MJE=.33 TF=50.00E-9
+  XTF=1 VTF=10 ITF=10.00E-3 CJC=1.892E-9
+  VJC=.35 MJC=.4422 XCJC=.9 FC=.5
+  TR=1.75E-6
.MODEL Q2model NPN
+  IS=94.11E-15 BF=431.2 NF=1 VAF=100
+  IKF=.9138 ISE=14.63E-12 NE=1.419 BR=1.085
+  NR=1 VAR=100 IKR=1.638 ISC=8.355E-9
+  NC=1.743 RB=0.322163 NK=.5678
+  RE=0 RC=0.117837 EG=1.110
+  CJE=2.000E-12 VJE=.75 MJE=.33 TF=50.00E-9
+  XTF=1 VTF=10 ITF=10.00E-3 CJC=0
+  VJC=.35 MJC=.4422 XCJC=.9 FC=.5
+  TR=1.75E-6
.ENDS
*$
* Motorola 350 Volt 40 Amp Darlington Transistor  07/20/98
*
* connections:    Collector
*                 |  Base
*                 |  |  Emitter
*                 |  |  |
.SUBCKT MJ10022   1  2  3
*
Q1 1 2 4 Q1model
Q2 1 4 3 Q2model 10.03
D1 3 1 Dmodel
D2 4 2 Dmodel
R1 2 4 100
R2 4 3 15
.MODEL Dmodel D
+ IS=11.665E-12
+ N=3.4038
+ RS=1.0000E-3
+ CJO=1.0000E-12
+ M=.3333
+ VJ=.75
+ ISR=100.00E-12
+ BV=500
+ IBV=1.00E-6
+ TT=5.0000E-9
.MODEL Q1model NPN
+  IS=904.3E-15 BF=114.2 NF=1 VAF=100
+  IKF=1.539 ISE=8.424E-12 NE=1.236 BR=61.20
+  NR=1 VAR=100 IKR=2.970 ISC=24.20E-9
+  NC=1.146 RB=0.260625 NK=.6049
+  RE=0 RC=0.213628 EG=1.110
+  CJE=2.000E-12 VJE=.75 MJE=.33 TF=80.00E-9
+  XTF=1 VTF=10 ITF=10.00E-3 CJC=1.221E-9
+  VJC=.35 MJC=.4268 XCJC=.9 FC=.5
+  TR=2.75E-3
.MODEL Q2model NPN
+  IS=904.3E-15 BF=114.2 NF=1 VAF=100
+  IKF=1.539 ISE=8.424E-12 NE=1.236 BR=61.20
+  NR=1 VAR=100 IKR=2.970 ISC=24.20E-9
+  NC=1.146 RB=0.260625 NK=.6049
+  RE=0 RC=0.213628 EG=1.110
+  CJE=2.000E-12 VJE=.75 MJE=.33 TF=80.00E-9
+  XTF=1 VTF=10 ITF=10.00E-3 CJC=0
+  VJC=.35 MJC=.4268 XCJC=.9 FC=.5
+  TR=2.75E-3
.ENDS
*$
* Motorola 150 Volt 30 Amp Darlington Transistor  07/20/98
*
* connections:    Collector
*                 |  Base
*                 |  |  Emitter
*                 |  |  |
.SUBCKT MJ11018   1  2  3
*
Q1 1 2 4 Q1model
Q2 1 4 3 Q2model .5005
D1 3 1 Dmodel
R1 2 4 10.00E3
R2 4 3 8
.MODEL Dmodel D
+ IS=14.710E-12
+ N=3.4748
+ RS=1.0000E-3
+ CJO=1.0000E-12
+ M=.3333
+ VJ=.75
+ ISR=100.00E-12
+ BV=312
+ IBV=1.00E-6
+ TT=5.0000E-9
.MODEL Q1model NPN
+  IS=22.61E-12 BF=2.997E3 NF=1 VAF=100
+  IKF=.2858 ISE=60.90E-12 NE=1.571 BR=34.58
+  NR=1 VAR=100 IKR=9.854 ISC=38.92E-12
+  NC=1.001 RB=0.202293 NK=.5632
+  RE=0 RC=0.0250371 EG=1.110
+  CJE=2.000E-12 VJE=.75 MJE=.33 TF=70.00E-9
+  XTF=1 VTF=10 ITF=10.00E-3 CJC=971.6E-12
+  VJC=.75 MJC=.3333 XCJC=.9 FC=.5
+  TR=9.00E-6
.MODEL Q2model NPN
+  IS=22.61E-12 BF=2.997E3 NF=1 VAF=100
+  IKF=.2858 ISE=60.90E-12 NE=1.571 BR=34.58
+  NR=1 VAR=100 IKR=9.854 ISC=38.92E-12
+  NC=1.001 RB=0.202293 NK=.5632
+  RE=0 RC=0.0250371 EG=1.110
+  CJE=2.000E-12 VJE=.75 MJE=.33 TF=70.00E-9
+  XTF=1 VTF=10 ITF=10.00E-3 CJC=0
+  VJC=.75 MJC=.3333 XCJC=.9 FC=.5
+  TR=9.00E-6
.ENDS
*$
* Motorola 250 Volt 30 Amp Darlington Transistor  07/20/98
*
* connections:    Collector
*                 |  Base
*                 |  |  Emitter
*                 |  |  |
.SUBCKT MJ11021   1  2  3
*
Q1 1 2 4 Q1model
Q2 1 4 3 Q2model .5003
D1 1 3 Dmodel
R1 4 2 10.00E3
R2 4 3 8
.MODEL Dmodel D
+ IS=14.710E-12
+ N=3.4748
+ RS=1.0000E-3
+ CJO=1.0000E-12
+ M=.3333
+ VJ=.75
+ ISR=100.00E-12
+ BV=312
+ IBV=1.00E-6
+ TT=5.0000E-9
.MODEL Q1model PNP
+  IS=11.17E-12 BF=2.997E3 NF=1 VAF=100
+  IKF=.8575 ISE=204.3E-12 NE=1.549 BR=.4649
+  NR=1 VAR=100 IKR=10.01E-3 ISC=14.14E-12
+  NC=2.476 RB=0.198862 NK=.6127
+  RE=0 RC=0.0207466 EG=1.110
+  CJE=2.000E-12 VJE=.75 MJE=.33 TF=22.00E-9
+  XTF=1 VTF=10 ITF=10.00E-3 CJC=971.6E-12
+  VJC=.75 MJC=.3333 XCJC=.9 FC=.5
+  TR=8.00E-6
.MODEL Q2model PNP
+  IS=11.17E-12 BF=2.997E3 NF=1 VAF=100
+  IKF=.8575 ISE=204.3E-12 NE=1.549 BR=.4649
+  NR=1 VAR=100 IKR=10.01E-3 ISC=14.14E-12
+  NC=2.476 RB=0.198862 NK=.6127
+  RE=0 RC=0.0207466 EG=1.110
+  CJE=2.000E-12 VJE=.75 MJE=.33 TF=22.00E-9
+  XTF=1 VTF=10 ITF=10.00E-3 CJC=0
+  VJC=.75 MJC=.3333 XCJC=.9 FC=.5
+  TR=8.00E-6
.ENDS
*$
* Motorola 100 Volt 2 Amp Darlington Transistor  07/20/98
*
* connections:    Collector
*                 |  Base
*                 |  |  Emitter
*                 |  |  |
.SUBCKT MJD112    1  2  3
*
Q1 1 2 4 Q1model
Q2 1 4 3 Q2model .5
D1 3 1 Dmodel
R1 2 4 8.000E3
R2 4 3 60
.MODEL Dmodel D
+ IS=14.710E-12
+ N=3.4748
+ RS=1.0000E-3
+ CJO=1.0000E-12
+ M=.3333
+ VJ=.75
+ ISR=100.00E-12
+ BV=120
+ IBV=1.00E-6
+ TT=5.0000E-9
.MODEL Q1model NPN
+  IS=1.401E-12 BF=2.997E3 NF=1 VAF=100
+  IKF=22.58E-3 ISE=5.356E-12 NE=1.428 BR=.1379
+  NR=1 VAR=100 IKR=15.57 ISC=1.583E-12
+  NC=2.997 RB=0.257987 NK=.4779
+  RE=0 RC=0.163225 EG=1.110
+  CJE=38.10E-12 VJE=.35 MJE=.3008 TF=12.00E-9
+  XTF=1 VTF=10 ITF=10.00E-3 CJC=42.29E-12
+  VJC=.9843 MJC=.1753 XCJC=.9 FC=.5
+  TR=2.20E-5
.MODEL Q2model NPN
+  IS=1.401E-12 BF=2.997E3 NF=1 VAF=100
+  IKF=22.58E-3 ISE=5.356E-12 NE=1.428 BR=.1379
+  NR=1 VAR=100 IKR=15.57 ISC=1.583E-12
+  NC=2.997 RB=0.257987 NK=.4779
+  RE=0 RC=0.163225 EG=1.110
+  CJE=38.10E-12 VJE=.35 MJE=.3008 TF=12.00E-9
+  XTF=1 VTF=10 ITF=10.00E-3 CJC=0
+  VJC=.9843 MJC=.1753 XCJC=.9 FC=.5
+  TR=2.20E-5
.ENDS
*$
* Motorola 100 Volt 2 Amp Darlington Transistor  07/20/98
*
* connections:    Collector
*                 |  Base
*                 |  |  Emitter
*                 |  |  |
.SUBCKT MJD117    1  2  3
*
Q1 1 2 4 Q1model
Q2 1 4 3 Q2model 1.159
D1 1 3 Dmodel
R1 2 4 8.000E3
R2 4 3 60
.MODEL Dmodel D
+ IS=14.710E-12
+ N=3.4748
+ RS=1.0000E-3
+ CJO=1.0000E-12
+ M=.3333
+ VJ=.75
+ ISR=100.00E-12
+ BV=120
+ IBV=1.00E-6
+ TT=5.0000E-9
.MODEL Q1model PNP
+  IS=830.6E-15 BF=2.997E3 NF=1 VAF=100
+  IKF=10.01E-3 ISE=1.431E-12 NE=1.456 BR=58.66
+  NR=1 VAR=100 IKR=5.461 ISC=907.1E-15
+  NC=2.997 RB=1.02909 NK=.4992
+  RE=0 RC=0.00100208 EG=1.110
+  CJE=48.81E-12 VJE=.9681 MJE=.4151 TF=7.00E-9
+  XTF=1 VTF=10 ITF=10.00E-3 CJC=110.4E-12
+  VJC=1.114 MJC=.2878 XCJC=.9 FC=.5
+  TR=50.00E-9
.MODEL Q2model PNP
+  IS=830.6E-15 BF=2.997E3 NF=1 VAF=100
+  IKF=10.01E-3 ISE=1.431E-12 NE=1.456 BR=58.66
+  NR=1 VAR=100 IKR=5.461 ISC=907.1E-15
+  NC=2.997 RB=1.02909 NK=.4992
+  RE=0 RC=0.00100208 EG=1.110
+  CJE=48.81E-12 VJE=.9681 MJE=.4151 TF=7.00E-9
+  XTF=1 VTF=10 ITF=10.00E-3 CJC=0
+  VJC=1.114 MJC=.2878 XCJC=.9 FC=.5
+  TR=50.00E-9
.ENDS
*$
* Motorola 100 Volt 8 Amp Darlington Transistor  07/20/98
*
* connections:    Collector
*                 |  Base
*                 |  |  Emitter
*                 |  |  |
.SUBCKT MJD122    1  2  3
*
Q1 1 2 4 Q1model
Q2 1 4 3 Q2model 3.805
D1 3 1 Dmodel
R1 2 4 8.000E3
R2 4 3 120
.MODEL Dmodel D
+ IS=38.627E-12
+ N=3.8049
+ RS=1.0000E-3
+ CJO=1.0000E-12
+ M=.3333
+ VJ=.75
+ ISR=100.00E-12
+ BV=120
+ IBV=1.00E-6
+ TT=5.0000E-9
.MODEL Q1model NPN
+  IS=54.03E-15 BF=2.997E3 NF=1 VAF=100
+  IKF=.5322 ISE=2.947E-12 NE=1.464 BR=.1191
+  NR=1 VAR=100 IKR=10.01E-3 ISC=54.03E-15
+  NC=1.006 RB=5.99377 NK=.7144
+  RE=0 RC=0.00101865 EG=1.110
+  CJE=106.7E-12 VJE=.6491 MJE=.456 TF=16.00E-9
+  XTF=1 VTF=10 ITF=10.00E-3 CJC=153.9E-12
+  VJC=.7977 MJC=.2174 XCJC=.9 FC=.5
+  TR=2.00E-5
.MODEL Q2model NPN
+  IS=54.03E-15 BF=2.997E3 NF=1 VAF=100
+  IKF=.5322 ISE=2.947E-12 NE=1.464 BR=.1191
+  NR=1 VAR=100 IKR=10.01E-3 ISC=54.03E-15
+  NC=1.006 RB=5.99377 NK=.7144
+  RE=0 RC=0.00101865 EG=1.110
+  CJE=106.7E-12 VJE=.6491 MJE=.456 TF=16.00E-9
+  XTF=1 VTF=10 ITF=10.00E-3 CJC=0
+  VJC=.7977 MJC=.2174 XCJC=.9 FC=.5
+  TR=2.00E-5
.ENDS
*$
* Motorola 100 Volt 8 Amp Darlington Transistor  07/20/98
*
* connections:    Collector
*                 |  Base
*                 |  |  Emitter
*                 |  |  |
.SUBCKT MJD127    1  2  3
*
Q1 1 2 4 Q1model
Q2 1 4 3 Q2model .5008
D1 1 3 Dmodel
R1 2 4 8.000E3
R2 4 3 120
.MODEL Dmodel D
+ IS=38.627E-12
+ N=3.8049
+ RS=1.0000E-3
+ CJO=1.0000E-12
+ M=.3333
+ VJ=.75
+ ISR=100.00E-12
+ BV=120
+ IBV=1.00E-6
+ TT=5.0000E-9
.MODEL Q1model PNP
+  IS=86.49E-15 BF=2.997E3 NF=1 VAF=100
+  IKF=.7241 ISE=1.023E-12 NE=1.388 BR=66.27
+  NR=1 VAR=100 IKR=12.30 ISC=456.3E-12
+  NC=1.001 RB=0.513037 NK=.635
+  RE=0 RC=0.00306723 EG=1.110
+  CJE=145.6E-12 VJE=.9688 MJE=.4056 TF=6.50E-9
+  XTF=1 VTF=10 ITF=10.00E-3 CJC=238.5E-12
+  VJC=1.500 MJC=.2431 XCJC=.9 FC=.5
+  TR=800.00E-5
.MODEL Q2model PNP
+  IS=86.49E-15 BF=2.997E3 NF=1 VAF=100
+  IKF=.7241 ISE=1.023E-12 NE=1.388 BR=66.27
+  NR=1 VAR=100 IKR=12.30 ISC=456.3E-12
+  NC=1.001 RB=0.513037 NK=.635
+  RE=0 RC=0.00306723 EG=1.110
+  CJE=145.6E-12 VJE=.9688 MJE=.4056 TF=6.50E-9
+  XTF=1 VTF=10 ITF=10.00E-3 CJC=0
+  VJC=1.500 MJC=.2431 XCJC=.9 FC=.5
+  TR=800.00E-5
.ENDS
*$
***********************************************************
* MJD6036 Darlington Transistor "macromodel" subcircuit
* created using Parts release 8.1 on 12/17/97 at 15:54
* Parts is a OrCAD product.
*
* connections:    Collector
*                 |  Base
*                 |  |  Emitter
*                 |  |  |
.SUBCKT MJD6036   1  2  3
*
Q1 1 2 4 Q1model
Q2 1 4 3 Q2model .2502
D1 1 3 Dmodel
R1 2 4 8.000E3
R2 4 3 60
.MODEL Dmodel D
+ IS=10.00E-15 RS=1.000E-3 N=1 XTI=3
+  CJO=10.00E-21 VJ=1 M=.5 FC=.5
.MODEL Q1model PNP
+  IS=1.653E-12 BF=1.266E3 NF=1 VAF=100
+  IKF=11.50E-3 ISE=2.216E-12 NE=2.090 BR=1.854
+  NR=1 VAR=100 IKR=4.942 ISC=2.138E-12
+  NC=2.818 RB=.2839 NK=.4306
+  RE=0 RC=0 EG=1.110
+  CJE=51.06E-12 VJE=.505 MJE=.3333 TF=1.8n
+  XTF=10 VTF=10 ITF=1 CJC=110.5E-12
+  VJC=1.014 MJC=.2851 XCJC=.9 FC=.5
+  TR=1.5u
.MODEL Q2model PNP
+  IS=1.653E-12 BF=1.266E3 NF=1 VAF=100
+  IKF=11.50E-3 ISE=2.216E-12 NE=2.090 BR=1.854
+  NR=1 VAR=100 IKR=4.942 ISC=2.138E-12
+  NC=2.818 RB=.2839 NK=.4306
+  RE=0 RC=0 EG=1.110
+  CJE=51.06E-12 VJE=.505 MJE=.3333 TF=1.8n
+  XTF=10 VTF=10 ITF=1 CJC=0
+  VJC=1.014 MJC=.2851 XCJC=.9 FC=.5
+  TR=1.5u
.ENDS
*$
* Motorola 80 Volt 4 Amp Darlington Transistor  07/20/98
*
* connections:    Collector
*                 |  Base
*                 |  |  Emitter
*                 |  |  |
.SUBCKT MJD6039   1  2  3
*
Q1 1 2 4 Q1model
Q2 1 4 3 Q2model .5244
D1 1 3 Dmodel
R1 2 4 8.000E3
R2 4 3 120
.MODEL Dmodel D
+ IS=62.194E-12
+ N=3.9920
+ RS=1.0000E-3
+ CJO=1.0000E-12
+ M=.3333
+ VJ=.75
+ ISR=100.00E-12
+ BV=100
+ IBV=1.00E-6
+ TT=5.0000E-9
.MODEL Q1model PNP