* Library of programmable logic: PAL types
*
*  Copyright OrCAD, Inc. 1998 All Rights Reserved.
*
*
* $Revision:   1.8  $
* $Author:   RPEREZ  $
* $Date:   17 Apr 1998 13:53:26  $
*
*
*-------------------------------------------------------------------------
* 20-Pin Small PAL Family
*
*$
*---------
* PAL10H8
*
* Programmable Logic Devices Databook and Design Guide,
* 1989 Edition, National Semiconductor
* muw   05/22/91	Created

.subckt PAL10H8  PIN1 PIN2 PIN3 PIN4 PIN5 PIN6 PIN7 PIN8 PIN9 PIN11 PIN12 PIN13
+	PIN14 PIN15 PIN16 PIN17 PIN18 PIN19
+	optional: PIN20=$G_DPWR PIN10=$G_DGND
+	params: MNTYMXDLY=0 IO_LEVEL=0
+	text: JEDEC_FILE="PAL.JED"
U1 plandc(10,16) pin20 pin10
+	pin2	pin1	pin3	pin4	pin5
+	pin6	pin7	pin8	pin9	pin11
+	row1	row2	row3	row4	row5	row6	row7	row8
+	row9	row10	row11	row12	row13	row14	row15	row16
+	D0_PLD IO_LS MNTYMXDLY={MNTYMXDLY} IO_LEVEL={IO_LEVEL} 
+	FILE=|JEDEC_FILE| 
U2 ora(2,8) pin20 pin10
+	row1	row2
+	row3	row4
+	row5	row6
+	row7	row8
+	row9	row10
+	row11	row12
+	row13	row14
+	row15	row16
+	pin19	pin18	pin17	pin16	pin15	pin14	pin13	pin12
+	D_PAL_20SML IO_LS MNTYMXDLY={MNTYMXDLY} IO_LEVEL={IO_LEVEL} 
.ends

.model D0_PLD upld ()

.model D_PAL_20SML ugate (
+	tplhty=25ns	tplhmx=35ns
+	tphlty=25ns	tphlmx=35ns
+	)

*$
*---------
* PAL12H6
*
* Programmable Logic Devices Databook and Design Guide,
* 1989 Edition, National Semiconductor
* muw   05/22/91	Created

.subckt PAL12H6  PIN1 PIN2 PIN3 PIN4 PIN5 PIN6 PIN7 PIN8 PIN9 PIN11 PIN12 PIN13
+	PIN14 PIN15 PIN16 PIN17 PIN18 PIN19
+	optional: PIN20=$G_DPWR PIN10=$G_DGND
+	params: MNTYMXDLY=0 IO_LEVEL=0
+	text: JEDEC_FILE="PAL.JED"
U1 plandc(12,16) pin20 pin10
+	pin2	pin1	pin3	pin19	pin4	pin5
+	pin6	pin7	pin8	pin12	pin9	pin11
+	row1	row2	row3	row4	row5	row6	row7	row8
+	row9	row10	row11	row12	row13	row14	row15	row16
+	D0_PLD IO_LS MNTYMXDLY={MNTYMXDLY} IO_LEVEL={IO_LEVEL}
+	FILE=|JEDEC_FILE| 
U2 ora(2,4) pin20 pin10
+	row5	row6
+	row7	row8
+	row9	row10
+	row11	row12
+	pin17	pin16	pin15	pin14
+	D_PAL_20SML IO_LS MNTYMXDLY={MNTYMXDLY} IO_LEVEL={IO_LEVEL} 
U3 ora(4,2) pin20 pin10
+	row1	row2	row3	row4
+	row13	row14	row15	row16
+	pin18	pin13
+	D_PAL_20SML IO_LS MNTYMXDLY={MNTYMXDLY} IO_LEVEL={IO_LEVEL} 
.ends

*$
*---------
* PAL14H4
*
* Programmable Logic Devices Databook and Design Guide,
* 1989 Edition, National Semiconductor
* muw   05/22/91	Created

.subckt PAL14H4  PIN1 PIN2 PIN3 PIN4 PIN5 PIN6 PIN7 PIN8 PIN9 PIN11 PIN12 PIN13
+	PIN14 PIN15 PIN16 PIN17 PIN18 PIN19
+	optional: PIN20=$G_DPWR PIN10=$G_DGND
+	params: MNTYMXDLY=0 IO_LEVEL=0
+	text: JEDEC_FILE="PAL.JED"
U1 plandc(14,16) pin20 pin10
+	pin2	pin1	pin3	pin19	pin4	pin18	pin5
+	pin6	pin7	pin13	pin8	pin12	pin9	pin11
+	row1	row2	row3	row4	row5	row6	row7	row8
+	row9	row10	row11	row12	row13	row14	row15	row16
+	D0_PLD IO_LS MNTYMXDLY={MNTYMXDLY} IO_LEVEL={IO_LEVEL}
+	FILE=|JEDEC_FILE| 
U2 ora(4,4) pin20 pin10
+	row1	row2	row3	row4
+	row5	row6	row7	row8
+	row9	row10	row11	row12
+	row13	row14	row15	row16
+	pin17	pin16	pin15	pin14
+	D_PAL_20SML IO_LS MNTYMXDLY={MNTYMXDLY} IO_LEVEL={IO_LEVEL} 
.ends

*$
*---------
* PAL16H2
*
* Programmable Logic Devices Databook and Design Guide,
* 1989 Edition, National Semiconductor
* muw   05/22/91	Created

.subckt PAL16H2  PIN1 PIN2 PIN3 PIN4 PIN5 PIN6 PIN7 PIN8 PIN9 PIN11 PIN12 PIN13
+	PIN14 PIN15 PIN16 PIN17 PIN18 PIN19
+	optional: PIN20=$G_DPWR PIN10=$G_DGND
+	params: MNTYMXDLY=0 IO_LEVEL=0
+	text: JEDEC_FILE="PAL.JED"
U1 plandc(16,16) pin20 pin10
+	pin2	pin1	pin3	pin19	pin4	pin18	pin5	pin17
+	pin6	pin14	pin7	pin13	pin8	pin12	pin9	pin11
+	row1	row2	row3	row4	row5	row6	row7	row8
+	row9	row10	row11	row12	row13	row14	row15	row16
+	D0_PLD IO_LS MNTYMXDLY={MNTYMXDLY} IO_LEVEL={IO_LEVEL}
+	FILE=|JEDEC_FILE| 
U2 ora(8,2) pin20 pin10
+	row1	row2	row3	row4	row5	row6	row7	row8
+	row9	row10	row11	row12	row13	row14	row15	row16
+	pin16	pin15
+	D_PAL_20SML IO_LS MNTYMXDLY={MNTYMXDLY} IO_LEVEL={IO_LEVEL} 
.ends

*$
*---------
* PAL10L8
*
* Programmable Logic Devices Databook and Design Guide,
* 1989 Edition, National Semiconductor
* muw   05/22/91	Created

.subckt PAL10L8  PIN1 PIN2 PIN3 PIN4 PIN5 PIN6 PIN7 PIN8 PIN9 PIN11 PIN12 PIN13
+	PIN14 PIN15 PIN16 PIN17 PIN18 PIN19
+	optional: PIN20=$G_DPWR PIN10=$G_DGND
+	params: MNTYMXDLY=0 IO_LEVEL=0
+	text: JEDEC_FILE="PAL.JED"
U1 plandc(10,16) pin20 pin10
+	pin2	pin1	pin3	pin4	pin5
+	pin6	pin7	pin8	pin9	pin11
+	row1	row2	row3	row4	row5	row6	row7	row8
+	row9	row10	row11	row12	row13	row14	row15	row16
+	D0_PLD IO_LS MNTYMXDLY={MNTYMXDLY} IO_LEVEL={IO_LEVEL}
+	FILE=|JEDEC_FILE| 
U2 nora(2,8) pin20 pin10
+	row1	row2
+	row3	row4
+	row5	row6
+	row7	row8
+	row9	row10
+	row11	row12
+	row13	row14
+	row15	row16
+	pin19	pin18	pin17	pin16	pin15	pin14	pin13	pin12
+	D_PAL_20SML IO_LS MNTYMXDLY={MNTYMXDLY} IO_LEVEL={IO_LEVEL} 
.ends

*$
*---------
* PAL12L6
*
* Programmable Logic Devices Databook and Design Guide,
* 1989 Edition, National Semiconductor
* muw   05/22/91	Created

.subckt PAL12L6  PIN1 PIN2 PIN3 PIN4 PIN5 PIN6 PIN7 PIN8 PIN9 PIN11 PIN12 PIN13
+	PIN14 PIN15 PIN16 PIN17 PIN18 PIN19
+	optional: PIN20=$G_DPWR PIN10=$G_DGND
+	params: MNTYMXDLY=0 IO_LEVEL=0
+	text: JEDEC_FILE="PAL.JED"
U1 plandc(12,16) pin20 pin10
+	pin2	pin1	pin3	pin19	pin4	pin5
+	pin6	pin7	pin8	pin12	pin9	pin11
+	row1	row2	row3	row4	row5	row6	row7	row8
+	row9	row10	row11	row12	row13	row14	row15	row16
+	D0_PLD IO_LS MNTYMXDLY={MNTYMXDLY} IO_LEVEL={IO_LEVEL}
+	FILE=|JEDEC_FILE| 
U2 nora(2,4) pin20 pin10
+	row5	row6
+	row7	row8
+	row9	row10
+	row11	row12
+	pin17	pin16	pin15	pin14
+	D_PAL_20SML IO_LS MNTYMXDLY={MNTYMXDLY} IO_LEVEL={IO_LEVEL} 
U3 nora(4,2) pin20 pin10
+	row1	row2	row3	row4
+	row13	row14	row15	row16
+	pin18	pin13
+	D_PAL_20SML IO_LS MNTYMXDLY={MNTYMXDLY} IO_LEVEL={IO_LEVEL} 
.ends

*$
*---------
* PAL14L4
*
* Programmable Logic Devices Databook and Design Guide,
* 1989 Edition, National Semiconductor
* muw   05/22/91	Created

.subckt PAL14L4  PIN1 PIN2 PIN3 PIN4 PIN5 PIN6 PIN7 PIN8 PIN9 PIN11 PIN12 PIN13
+	PIN14 PIN15 PIN16 PIN17 PIN18 PIN19
+	optional: PIN20=$G_DPWR PIN10=$G_DGND
+	params: MNTYMXDLY=0 IO_LEVEL=0
+	text: JEDEC_FILE="PAL.JED"
U1 plandc(14,16) pin20 pin10
+	pin2	pin1	pin3	pin19	pin4	pin18	pin5
+	pin6	pin7	pin13	pin8	pin12	pin9	pin11
+	row1	row2	row3	row4	row5	row6	row7	row8
+	row9	row10	row11	row12	row13	row14	row15	row16
+	D0_PLD IO_LS MNTYMXDLY={MNTYMXDLY} IO_LEVEL={IO_LEVEL}
+	FILE=|JEDEC_FILE| 
U2 nora(4,4) pin20 pin10
+	row1	row2	row3	row4
+	row5	row6	row7	row8
+	row9	row10	row11	row12
+	row13	row14	row15	row16
+	pin17	pin16	pin15	pin14
+	D_PAL_20SML IO_LS MNTYMXDLY={MNTYMXDLY} IO_LEVEL={IO_LEVEL} 
.ends

*$
*---------
* PAL16L2
*
* Programmable Logic Devices Databook and Design Guide,
* 1989 Edition, National Semiconductor
* muw   05/22/91	Created

.subckt PAL16L2  PIN1 PIN2 PIN3 PIN4 PIN5 PIN6 PIN7 PIN8 PIN9 PIN11 PIN12 PIN13
+	PIN14 PIN15 PIN16 PIN17 PIN18 PIN19
+	optional: PIN20=$G_DPWR PIN10=$G_DGND
+	params: MNTYMXDLY=0 IO_LEVEL=0
+	text: JEDEC_FILE="PAL.JED"
U1 plandc(16,16) pin20 pin10
+	pin2	pin1	pin3	pin19	pin4	pin18	pin5	pin17
+	pin6	pin14	pin7	pin13	pin8	pin12	pin9	pin11
+	row1	row2	row3	row4	row5	row6	row7	row8
+	row9	row10	row11	row12	row13	row14	row15	row16
+	D0_PLD IO_LS MNTYMXDLY={MNTYMXDLY} IO_LEVEL={IO_LEVEL}
+	FILE=|JEDEC_FILE| 
U2 nora(8,2) pin20 pin10
+	row1	row2	row3	row4	row5	row6	row7	row8
+	row9	row10	row11	row12	row13	row14	row15	row16
+	pin16	pin15
+	D_PAL_20SML IO_LS MNTYMXDLY={MNTYMXDLY} IO_LEVEL={IO_LEVEL} 
.ends

*$
*---------
* PAL16C1
*
* Programmable Logic Devices Databook and Design Guide,
* 1989 Edition, National Semiconductor
* muw   05/22/91	Created

.subckt PAL16C1  PIN1 PIN2 PIN3 PIN4 PIN5 PIN6 PIN7 PIN8 PIN9 PIN11 PIN12 PIN13
+	PIN14 PIN15 PIN16 PIN17 PIN18 PIN19
+	optional: PIN20=$G_DPWR PIN10=$G_DGND
+	params: MNTYMXDLY=0 IO_LEVEL=0
+	text: JEDEC_FILE="PAL.JED"
U1 plandc(16,16) pin20 pin10
+	pin2	pin1	pin3	pin19	pin4	pin18	pin5	pin17
+	pin6	pin14	pin7	pin13	pin8	pin12	pin9	pin11
+	row1	row2	row3	row4	row5	row6	row7	row8
+	row9	row10	row11	row12	row13	row14	row15	row16
+	D0_PLD IO_LS MNTYMXDLY={MNTYMXDLY} IO_LEVEL={IO_LEVEL}
+	FILE=|JEDEC_FILE| 
U2 or(16) pin20 pin10
+	row1	row2	row3	row4	row5	row6	row7	row8
+	row9	row10	row11	row12	row13	row14	row15	row16
+	or
+	D0_GATE IO_LS 
U3 buf pin20 pin10
+	or   pin16 
+	D_PAL_20SML IO_LS MNTYMXDLY={MNTYMXDLY} IO_LEVEL={IO_LEVEL} 
U4 inv pin20 pin10
+	or   pin15 
+	D_PAL_20SML IO_LS MNTYMXDLY={MNTYMXDLY} IO_LEVEL={IO_LEVEL} 
.ends

*$
*---------
* PAL10H8A
*
* Programmable Logic Devices Databook and Design Guide,
* 1989 Edition, National Semiconductor
* muw   05/22/91	Created

.subckt PAL10H8A  PIN1 PIN2 PIN3 PIN4 PIN5 PIN6 PIN7 PIN8 PIN9 PIN11 PIN12 PIN13
+	PIN14 PIN15 PIN16 PIN17 PIN18 PIN19
+	optional: PIN20=$G_DPWR PIN10=$G_DGND
+	params: MNTYMXDLY=0 IO_LEVEL=0
+	text: JEDEC_FILE="PAL.JED"
U1 plandc(10,16) pin20 pin10
+	pin2	pin1	pin3	pin4	pin5
+	pin6	pin7	pin8	pin9	pin11
+	row1	row2	row3	row4	row5	row6	row7	row8
+	row9	row10	row11	row12	row13	row14	row15	row16
+	D0_PLD IO_LS MNTYMXDLY={MNTYMXDLY} IO_LEVEL={IO_LEVEL}
+	FILE=|JEDEC_FILE| 
U2 ora(2,8) pin20 pin10
+	row1	row2
+	row3	row4
+	row5	row6
+	row7	row8
+	row9	row10
+	row11	row12
+	row13	row14
+	row15	row16
+	pin19	pin18	pin17	pin16	pin15	pin14	pin13	pin12
+	D_PAL_20SMLA IO_LS MNTYMXDLY={MNTYMXDLY} IO_LEVEL={IO_LEVEL} 
.ends

.model D_PAL_20SMLA ugate (
+	tplhty=15ns	tplhmx=25ns
+	tphlty=15ns	tphlmx=25ns
+	)
*$
*---------
* PAL12H6A
*
* Programmable Logic Devices Databook and Design Guide,
* 1989 Edition, National Semiconductor
* muw   05/22/91	Created

.subckt PAL12H6A  PIN1 PIN2 PIN3 PIN4 PIN5 PIN6 PIN7 PIN8 PIN9 PIN11 PIN12 PIN13
+	PIN14 PIN15 PIN16 PIN17 PIN18 PIN19
+	optional: PIN20=$G_DPWR PIN10=$G_DGND
+	params: MNTYMXDLY=0 IO_LEVEL=0
+	text: JEDEC_FILE="PAL.JED"
U1 plandc(12,16) pin20 pin10
+	pin2	pin1	pin3	pin19	pin4	pin5
+	pin6	pin7	pin8	pin12	pin9	pin11
+	row1	row2	row3	row4	row5	row6	row7	row8
+	row9	row10	row11	row12	row13	row14	row15	row16
+	D0_PLD IO_LS MNTYMXDLY={MNTYMXDLY} IO_LEVEL={IO_LEVEL}
+	FILE=|JEDEC_FILE| 
U2 ora(2,4) pin20 pin10
+	row5	row6
+	row7	row8
+	row9	row10
+	row11	row12
+	pin17	pin16	pin15	pin14
+	D_PAL_20SMLA IO_LS MNTYMXDLY={MNTYMXDLY} IO_LEVEL={IO_LEVEL} 
U3 ora(4,2) pin20 pin10
+	row1	row2	row3	row4
+	row13	row14	row15	row16
+	pin18	pin13
+	D_PAL_20SMLA IO_LS MNTYMXDLY={MNTYMXDLY} IO_LEVEL={IO_LEVEL} 
.ends

*$
*---------
* PAL14H4A
*
* Programmable Logic Devices Databook and Design Guide,
* 1989 Edition, National Semiconductor
* muw   05/22/91	Created

.subckt PAL14H4A  PIN1 PIN2 PIN3 PIN4 PIN5 PIN6 PIN7 PIN8 PIN9 PIN11 PIN12 PIN13
+	PIN14 PIN15 PIN16 PIN17 PIN18 PIN19
+	optional: PIN20=$G_DPWR PIN10=$G_DGND
+	params: MNTYMXDLY=0 IO_LEVEL=0
+	text: JEDEC_FILE="PAL.JED"
U1 plandc(14,16) pin20 pin10
+	pin2	pin1	pin3	pin19	pin4	pin18	pin5
+	pin6	pin7	pin13	pin8	pin12	pin9	pin11
+	row1	row2	row3	row4	row5	row6	row7	row8
+	row9	row10	row11	row12	row13	row14	row15	row16
+	D0_PLD IO_LS MNTYMXDLY={MNTYMXDLY} IO_LEVEL={IO_LEVEL}
+	FILE=|JEDEC_FILE| 
U2 ora(4,4) pin20 pin10
+	row1	row2	row3	row4
+	row5	row6	row7	row8
+	row9	row10	row11	row12
+	row13	row14	row15	row16
+	pin17	pin16	pin15	pin14
+	D_PAL_20SMLA IO_LS MNTYMXDLY={MNTYMXDLY} IO_LEVEL={IO_LEVEL} 
.ends

*$
*---------
* PAL16H2A
*
* Programmable Logic Devices Databook and Design Guide,
* 1989 Edition, National Semiconductor
* muw   05/22/91	Created

.subckt PAL16H2A  PIN1 PIN2 PIN3 PIN4 PIN5 PIN6 PIN7 PIN8 PIN9 PIN11 PIN12 PIN13
+	PIN14 PIN15 PIN16 PIN17 PIN18 PIN19
+	optional: PIN20=$G_DPWR PIN10=$G_DGND
+	params: MNTYMXDLY=0 IO_LEVEL=0
+	text: JEDEC_FILE="PAL.JED"
U1 plandc(16,16) pin20 pin10
+	pin2	pin1	pin3	pin19	pin4	pin18	pin5	pin17
+	pin6	pin14	pin7	pin13	pin8	pin12	pin9	pin11
+	row1	row2	row3	row4	row5	row6	row7	row8
+	row9	row10	row11	row12	row13	row14	row15	row16
+	D0_PLD IO_LS MNTYMXDLY={MNTYMXDLY} IO_LEVEL={IO_LEVEL}
+	FILE=|JEDEC_FILE| 
U2 ora(8,2) pin20 pin10
+	row1	row2	row3	row4	row5	row6	row7	row8
+	row9	row10	row11	row12	row13	row14	row15	row16
+	pin16	pin15
+	D_PAL_20SMLA IO_LS MNTYMXDLY={MNTYMXDLY} IO_LEVEL={IO_LEVEL} 
.ends

*$
*---------
* PAL10L8A
*
* Programmable Logic Devices Databook and Design Guide,
* 1989 Edition, National Semiconductor
* muw   05/22/91	Created

.subckt PAL10L8A  PIN1 PIN2 PIN3 PIN4 PIN5 PIN6 PIN7 PIN8 PIN9 PIN11 PIN12 PIN13
+	PIN14 PIN15 PIN16 PIN17 PIN18 PIN19
+	optional: PIN20=$G_DPWR PIN10=$G_DGND
+	params: MNTYMXDLY=0 IO_LEVEL=0
+	text: JEDEC_FILE="PAL.JED"
U1 plandc(10,16) pin20 pin10
+	pin2	pin1	pin3	pin4	pin5
+	pin6	pin7	pin8	pin9	pin11
+	row1	row2	row3	row4	row5	row6	row7	row8
+	row9	row10	row11	row12	row13	row14	row15	row16
+	D0_PLD IO_LS MNTYMXDLY={MNTYMXDLY} IO_LEVEL={IO_LEVEL}
+	FILE=|JEDEC_FILE| 
U2 nora(2,8) pin20 pin10
+	row1	row2
+	row3	row4
+	row5	row6
+	row7	row8
+	row9	row10
+	row11	row12
+	row13	row14
+	row15	row16
+	pin19	pin18	pin17	pin16	pin15	pin14	pin13	pin12
+	D_PAL_20SMLA IO_LS MNTYMXDLY={MNTYMXDLY} IO_LEVEL={IO_LEVEL} 
.ends

*$
*---------
* PAL12L6A
*
* Programmable Logic Devices Databook and Design Guide,
* 1989 Edition, National Semiconductor
* muw   05/22/91	Created

.subckt PAL12L6A  PIN1 PIN2 PIN3 PIN4 PIN5 PIN6 PIN7 PIN8 PIN9 PIN11 PIN12 PIN13
+	PIN14 PIN15 PIN16 PIN17 PIN18 PIN19
+	optional: PIN20=$G_DPWR PIN10=$G_DGND
+	params: MNTYMXDLY=0 IO_LEVEL=0
+	text: JEDEC_FILE="PAL.JED"
U1 plandc(12,16) pin20 pin10
+	pin2	pin1	pin3	pin19	pin4	pin5
+	pin6	pin7	pin8	pin12	pin9	pin11
+	row1	row2	row3	row4	row5	row6	row7	row8
+	row9	row10	row11	row12	row13	row14	row15	row16
+	D0_PLD IO_LS MNTYMXDLY={MNTYMXDLY} IO_LEVEL={IO_LEVEL}
+	FILE=|JEDEC_FILE| 
U2 nora(2,4) pin20 pin10
+	row5	row6
+	row7	row8
+	row9	row10
+	row11	row12
+	pin17	pin16	pin15	pin14
+	D_PAL_20SMLA IO_LS MNTYMXDLY={MNTYMXDLY} IO_LEVEL={IO_LEVEL} 
U3 nora(4,2) pin20 pin10
+	row1	row2	row3	row4
+	row13	row14	row15	row16
+	pin18	pin13
+	D_PAL_20SMLA IO_LS MNTYMXDLY={MNTYMXDLY} IO_LEVEL={IO_LEVEL} 
.ends

*$
*---------
* PAL14L4A
*
* Programmable Logic Devices Databook and Design Guide,
* 1989 Edition, National Semiconductor
* muw   05/22/91	Created

.subckt PAL14L4A  PIN1 PIN2 PIN3 PIN4 PIN5 PIN6 PIN7 PIN8 PIN9 PIN11 PIN12 PIN13
+	PIN14 PIN15 PIN16 PIN17 PIN18 PIN19
+	optional: PIN20=$G_DPWR PIN10=$G_DGND
+	params: MNTYMXDLY=0 IO_LEVEL=0
+	text: JEDEC_FILE="PAL.JED"
U1 plandc(14,16) pin20 pin10
+	pin2	pin1	pin3	pin19	pin4	pin18	pin5
+	pin6	pin7	pin13	pin8	pin12	pin9	pin11
+	row1	row2	row3	row4	row5	row6	row7	row8
+	row9	row10	row11	row12	row13	row14	row15	row16
+	D0_PLD IO_LS MNTYMXDLY={MNTYMXDLY} IO_LEVEL={IO_LEVEL}
+	FILE=|JEDEC_FILE| 
U2 nora(4,4) pin20 pin10
+	row1	row2	row3	row4
+	row5	row6	row7	row8
+	row9	row10	row11	row12
+	row13	row14	row15	row16
+	pin17	pin16	pin15	pin14
+	D_PAL_20SMLA IO_LS MNTYMXDLY={MNTYMXDLY} IO_LEVEL={IO_LEVEL} 
.ends

*$
*---------
* PAL16L2A
*
* Programmable Logic Devices Databook and Design Guide,
* 1989 Edition, National Semiconductor
* muw   05/22/91	Created

.subckt PAL16L2A  PIN1 PIN2 PIN3 PIN4 PIN5 PIN6 PIN7 PIN8 PIN9 PIN11 PIN12 PIN13
+	PIN14 PIN15 PIN16 PIN17 PIN18 PIN19
+	optional: PIN20=$G_DPWR PIN10=$G_DGND
+	params: MNTYMXDLY=0 IO_LEVEL=0
+	text: JEDEC_FILE="PAL.JED"
U1 plandc(16,16) pin20 pin10
+	pin2	pin1	pin3	pin19	pin4	pin18	pin5	pin17
+	pin6	pin14	pin7	pin13	pin8	pin12	pin9	pin11
+	row1	row2	row3	row4	row5	row6	row7	row8
+	row9	row10	row11	row12	row13	row14	row15	row16
+	D0_PLD IO_LS MNTYMXDLY={MNTYMXDLY} IO_LEVEL={IO_LEVEL}
+	FILE=|JEDEC_FILE| 
U2 nora(8,2) pin20 pin10
+	row1	row2	row3	row4	row5	row6	row7	row8
+	row9	row10	row11	row12	row13	row14	row15	row16
+	pin16	pin15
+	D_PAL_20SMLA IO_LS MNTYMXDLY={MNTYMXDLY} IO_LEVEL={IO_LEVEL} 
.ends

*$
*---------
* PAL16C1A
*
* Programmable Logic Devices Databook and Design Guide,
* 1989 Edition, National Semiconductor
* muw   05/22/91	Created

.subckt PAL16C1A  PIN1 PIN2 PIN3 PIN4 PIN5 PIN6 PIN7 PIN8 PIN9 PIN11 PIN12 PIN13
+	PIN14 PIN15 PIN16 PIN17 PIN18 PIN19
+	optional: PIN20=$G_DPWR PIN10=$G_DGND
+	params: MNTYMXDLY=0 IO_LEVEL=0
+	text: JEDEC_FILE="PAL.JED"
U1 plandc(16,16) pin20 pin10
+	pin2	pin1	pin3	pin19	pin4	pin18	pin5	pin17
+	pin6	pin14	pin7	pin13	pin8	pin12	pin9	pin11
+	row1	row2	row3	row4	row5	row6	row7	row8
+	row9	row10	row11	row12	row13	row14	row15	row16
+	D0_PLD IO_LS MNTYMXDLY={MNTYMXDLY} IO_LEVEL={IO_LEVEL}
+	FILE=|JEDEC_FILE| 
U2 or(16) pin20 pin10
+	row1	row2	row3	row4	row5	row6	row7	row8
+	row9	row10	row11	row12	row13	row14	row15	row16
+	or
+	D0_GATE IO_LS 
U3 buf pin20 pin10
+	or   pin16 
+	D_PAL_20SMLCA IO_LS MNTYMXDLY={MNTYMXDLY} IO_LEVEL={IO_LEVEL} 
U4 inv pin20 pin10
+	or   pin15 
+	D_PAL_20SMLCA IO_LS MNTYMXDLY={MNTYMXDLY} IO_LEVEL={IO_LEVEL} 
.ends

.model D_PAL_20SMLCA ugate (
+	tplhty=15ns	tplhmx=30ns
+	tphlty=15ns	tphlmx=30ns
+	)
*$
*---------
* PAL10H8A2
*
* Programmable Logic Devices Databook and Design Guide,
* 1989 Edition, National Semiconductor
* muw   05/22/91	Created

.subckt PAL10H8A2  PIN1 PIN2 PIN3 PIN4 PIN5 PIN6 PIN7 PIN8 PIN9 PIN11 PIN12
+	PIN13 PIN14 PIN15 PIN16 PIN17 PIN18 PIN19
+	optional: PIN20=$G_DPWR PIN10=$G_DGND
+	params: MNTYMXDLY=0 IO_LEVEL=0
+	text: JEDEC_FILE="PAL.JED"
U1 plandc(10,16) pin20 pin10
+	pin2	pin1	pin3	pin4	pin5
+	pin6	pin7	pin8	pin9	pin11
+	row1	row2	row3	row4	row5	row6	row7	row8
+	row9	row10	row11	row12	row13	row14	row15	row16
+	D0_PLD IO_LS MNTYMXDLY={MNTYMXDLY} IO_LEVEL={IO_LEVEL}
+	FILE=|JEDEC_FILE| 
U2 ora(2,8) pin20 pin10
+	row1	row2
+	row3	row4
+	row5	row6
+	row7	row8
+	row9	row10
+	row11	row12
+	row13	row14
+	row15	row16
+	pin19	pin18	pin17	pin16	pin15	pin14	pin13	pin12
+	D_PAL_20SMLA2 IO_LS MNTYMXDLY={MNTYMXDLY} IO_LEVEL={IO_LEVEL} 
.ends

.model D_PAL_20SMLA2 ugate (
+	tplhty=15ns	tplhmx=25ns
+	tphlty=15ns	tphlmx=25ns
+	)
*$
*---------
* PAL12H6A2
*
* Programmable Logic Devices Databook and Design Guide,
* 1989 Edition, National Semiconductor
* muw   05/22/91	Created

.subckt PAL12H6A2  PIN1 PIN2 PIN3 PIN4 PIN5 PIN6 PIN7 PIN8 PIN9 PIN11 PIN12
+	PIN13 PIN14 PIN15 PIN16 PIN17 PIN18 PIN19
+	optional: PIN20=$G_DPWR PIN10=$G_DGND
+	params: MNTYMXDLY=0 IO_LEVEL=0
+	text: JEDEC_FILE="PAL.JED"
U1 plandc(12,16) pin20 pin10
+	pin2	pin1	pin3	pin19	pin4	pin5
+	pin6	pin7	pin8	pin12	pin9	pin11
+	row1	row2	row3	row4	row5	row6	row7	row8
+	row9	row10	row11	row12	row13	row14	row15	row16
+	D0_PLD IO_LS MNTYMXDLY={MNTYMXDLY} IO_LEVEL={IO_LEVEL}
+	FILE=|JEDEC_FILE| 
U2 ora(2,4) pin20 pin10
+	row5	row6
+	row7	row8
+	row9	row10
+	row11	row12
+	pin17	pin16	pin15	pin14
+	D_PAL_20SMLA2 IO_LS MNTYMXDLY={MNTYMXDLY} IO_LEVEL={IO_LEVEL} 
U3 ora(4,2) pin20 pin10
+	row1	row2	row3	row4
+	row13	row14	row15	row16
+	pin18	pin13
+	D_PAL_20SMLA2 IO_LS MNTYMXDLY={MNTYMXDLY} IO_LEVEL={IO_LEVEL} 
.ends

*$
*---------
* PAL14H4A2
*
* Programmable Logic Devices Databook and Design Guide,
* 1989 Edition, National Semiconductor
* muw   05/22/91	Created

.subckt PAL14H4A2  PIN1 PIN2 PIN3 PIN4 PIN5 PIN6 PIN7 PIN8 PIN9 PIN11 PIN12
+	PIN13 PIN14 PIN15 PIN16 PIN17 PIN18 PIN19
+	optional: PIN20=$G_DPWR PIN10=$G_DGND
+	params: MNTYMXDLY=0 IO_LEVEL=0
+	text: JEDEC_FILE="PAL.JED"
U1 plandc(14,16) pin20 pin10
+	pin2	pin1	pin3	pin19	pin4	pin18	pin5
+	pin6	pin7	pin13	pin8	pin12	pin9	pin11
+	row1	row2	row3	row4	row5	row6	row7	row8
+	row9	row10	row11	row12	row13	row14	row15	row16
+	D0_PLD IO_LS MNTYMXDLY={MNTYMXDLY} IO_LEVEL={IO_LEVEL}
+	FILE=|JEDEC_FILE| 
U2 ora(4,4) pin20 pin10
+	row1	row2	row3	row4
+	row5	row6	row7	row8
+	row9	row10	row11	row12
+	row13	row14	row15	row16
+	pin17	pin16	pin15	pin14
+	D_PAL_20SMLA2 IO_LS MNTYMXDLY={MNTYMXDLY} IO_LEVEL={IO_LEVEL} 
.ends

*$
*---------
* PAL16H2A2
*
* Programmable Logic Devices Databook and Design Guide,
* 1989 Edition, National Semiconductor
* muw   05/22/91	Created

.subckt PAL16H2A2  PIN1 PIN2 PIN3 PIN4 PIN5 PIN6 PIN7 PIN8 PIN9 PIN11 PIN12
+	PIN13 PIN14 PIN15 PIN16 PIN17 PIN18 PIN19
+	optional: PIN20=$G_DPWR PIN10=$G_DGND
+	params: MNTYMXDLY=0 IO_LEVEL=0
+	text: JEDEC_FILE="PAL.JED"
U1 plandc(16,16) pin20 pin10
+	pin2	pin1	pin3	pin19	pin4	pin18	pin5	pin17
+	pin6	pin14	pin7	pin13	pin8	pin12	pin9	pin11
+	row1	row2	row3	row4	row5	row6	row7	row8
+	row9	row10	row11	row12	row13	row14	row15	row16
+	D0_PLD IO_LS MNTYMXDLY={MNTYMXDLY} IO_LEVEL={IO_LEVEL}
+	FILE=|JEDEC_FILE| 
U2 ora(8,2) pin20 pin10
+	row1	row2	row3	row4	row5	row6	row7	row8
+	row9	row10	row11	row12	row13	row14	row15	row16
+	pin16	pin15
+	D_PAL_20SMLA2 IO_LS MNTYMXDLY={MNTYMXDLY} IO_LEVEL={IO_LEVEL} 
.ends

*$
*---------
* PAL10L8A2
*
* Programmable Logic Devices Databook and Design Guide,
* 1989 Edition, National Semiconductor
* muw   05/22/91	Created

.subckt PAL10L8A2  PIN1 PIN2 PIN3 PIN4 PIN5 PIN6 PIN7 PIN8 PIN9 PIN11 PIN12
+	PIN13 PIN14 PIN15 PIN16 PIN17 PIN18 PIN19
+	optional: PIN20=$G_DPWR PIN10=$G_DGND
+	params: MNTYMXDLY=0 IO_LEVEL=0
+	text: JEDEC_FILE="PAL.JED"
U1 plandc(10,16) pin20 pin10
+	pin2	pin1	pin3	pin4	pin5
+	pin6	pin7	pin8	pin9	pin11
+	row1	row2	row3	row4	row5	row6	row7	row8
+	row9	row10	row11	row12	row13	row14	row15	row16
+	D0_PLD IO_LS MNTYMXDLY={MNTYMXDLY} IO_LEVEL={IO_LEVEL}
+	FILE=|JEDEC_FILE| 
U2 nora(2,8) pin20 pin10
+	row1	row2
+	row3	row4
+	row5	row6
+	row7	row8
+	row9	row10
+	row11	row12
+	row13	row14
+	row15	row16
+	pin19	pin18	pin17	pin16	pin15	pin14	pin13	pin12
+	D_PAL_20SMLA2 IO_LS MNTYMXDLY={MNTYMXDLY} IO_LEVEL={IO_LEVEL} 
.ends

*$
*---------
* PAL12L6A2
*
* Programmable Logic Devices Databook and Design Guide,
* 1989 Edition, National Semiconductor
* muw   05/22/91	Created

.subckt PAL12L6A2  PIN1 PIN2 PIN3 PIN4 PIN5 PIN6 PIN7 PIN8 PIN9 PIN11 PIN12
+	PIN13 PIN14 PIN15 PIN16 PIN17 PIN18 PIN19
+	optional: PIN20=$G_DPWR PIN10=$G_DGND
+	params: MNTYMXDLY=0 IO_LEVEL=0
+	text: JEDEC_FILE="PAL.JED"
U1 plandc(12,16) pin20 pin10
+	pin2	pin1	pin3	pin19	pin4	pin5
+	pin6	pin7	pin8	pin12	pin9	pin11
+	row1	row2	row3	row4	row5	row6	row7	row8
+	row9	row10	row11	row12	row13	row14	row15	row16
+	D0_PLD IO_LS MNTYMXDLY={MNTYMXDLY} IO_LEVEL={IO_LEVEL}
+	FILE=|JEDEC_FILE| 
U2 nora(2,4) pin20 pin10
+	row5	row6
+	row7	row8
+	row9	row10
+	row11	row12
+	pin17	pin16	pin15	pin14
+	D_PAL_20SMLA2 IO_LS MNTYMXDLY={MNTYMXDLY} IO_LEVEL={IO_LEVEL} 
U3 nora(4,2) pin20 pin10
+	row1	row2	row3	row4
+	row13	row14	row15	row16
+	pin18	pin13
+	D_PAL_20SMLA2 IO_LS MNTYMXDLY={MNTYMXDLY} IO_LEVEL={IO_LEVEL} 
.ends

*$
*---------
* PAL14L4A2
*
* Programmable Logic Devices Databook and Design Guide,
* 1989 Edition, National Semiconductor
* muw   05/22/91	Created

.subckt PAL14L4A2  PIN1 PIN2 PIN3 PIN4 PIN5 PIN6 PIN7 PIN8 PIN9 PIN11 PIN12
+	PIN13 PIN14 PIN15 PIN16 PIN17 PIN18 PIN19
+	optional: PIN20=$G_DPWR PIN10=$G_DGND
+	params: MNTYMXDLY=0 IO_LEVEL=0
+	text: JEDEC_FILE="PAL.JED"
U1 plandc(14,16) pin20 pin10
+	pin2	pin1	pin3	pin19	pin4	pin18	pin5
+	pin6	pin7	pin13	pin8	pin12	pin9	pin11
+	row1	row2	row3	row4	row5	row6	row7	row8
+	row9	row10	row11	row12	row13	row14	row15	row16
+	D0_PLD IO_LS MNTYMXDLY={MNTYMXDLY} IO_LEVEL={IO_LEVEL}
+	FILE=|JEDEC_FILE| 
U2 nora(4,4) pin20 pin10
+	row1	row2	row3	row4
+	row5	row6	row7	row8
+	row9	row10	row11	row12
+	row13	row14	row15	row16
+	pin17	pin16	pin15	pin14
+	D_PAL_20SMLA2 IO_LS MNTYMXDLY={MNTYMXDLY} IO_LEVEL={IO_LEVEL} 
.ends

*$
*---------
* PAL16L2A2
*
* Programmable Logic Devices Databook and Design Guide,
* 1989 Edition, National Semiconductor
* muw   05/22/91	Created

.subckt PAL16L2A2  PIN1 PIN2 PIN3 PIN4 PIN5 PIN6 PIN7 PIN8 PIN9 PIN11 PIN12
+	PIN13 PIN14 PIN15 PIN16 PIN17 PIN18 PIN19
+	optional: PIN20=$G_DPWR PIN10=$G_DGND
+	params: MNTYMXDLY=0 IO_LEVEL=0
+	text: JEDEC_FILE="PAL.JED"
U1 plandc(16,16) pin20 pin10
+	pin2	pin1	pin3	pin19	pin4	pin18	pin5	pin17
+	pin6	pin14	pin7	pin13	pin8	pin12	pin9	pin11
+	row1	row2	row3	row4	row5	row6	row7	row8
+	row9	row10	row11	row12	row13	row14	row15	row16
+	D0_PLD IO_LS MNTYMXDLY={MNTYMXDLY} IO_LEVEL={IO_LEVEL}
+	FILE=|JEDEC_FILE| 
U2 nora(8,2) pin20 pin10
+	row1	row2	row3	row4	row5	row6	row7	row8
+	row9	row10	row11	row12	row13	row14	row15	row16
+	pin16	pin15
+	D_PAL_20SMLA2 IO_LS MNTYMXDLY={MNTYMXDLY} IO_LEVEL={IO_LEVEL} 
.ends

*$
*---------
* PAL16C1A2
*
* Programmable Logic Devices Databook and Design Guide,
* 1989 Edition, National Semiconductor
* muw   05/22/91	Created

.subckt PAL16C1A2  PIN1 PIN2 PIN3 PIN4 PIN5 PIN6 PIN7 PIN8 PIN9 PIN11 PIN12
+	PIN13 PIN14 PIN15 PIN16 PIN17 PIN18 PIN19
+	optional: PIN20=$G_DPWR PIN10=$G_DGND
+	params: MNTYMXDLY=0 IO_LEVEL=0
+	text: JEDEC_FILE="PAL.JED"
U1 plandc(16,16) pin20 pin10
+	pin2	pin1	pin3	pin19	pin4	pin18	pin5	pin17
+	pin6	pin14	pin7	pin13	pin8	pin12	pin9	pin11
+	row1	row2	row3	row4	row5	row6	row7	row8
+	row9	row10	row11	row12	row13	row14	row15	row16
+	D0_PLD IO_LS MNTYMXDLY={MNTYMXDLY} IO_LEVEL={IO_LEVEL}
+	FILE=|JEDEC_FILE| 
U2 or(16) pin20 pin10
+	row1	row2	row3	row4	row5	row6	row7	row8
+	row9	row10	row11	row12	row13	row14	row15	row16
+	or
+	D0_GATE IO_LS 
U3 buf pin20 pin10
+	or   pin16 
+	D_PAL_20SMLCA2 IO_LS MNTYMXDLY={MNTYMXDLY} IO_LEVEL={IO_LEVEL} 
U4 inv pin20 pin10
+	or   pin15 
+	D_PAL_20SMLCA2 IO_LS MNTYMXDLY={MNTYMXDLY} IO_LEVEL={IO_LEVEL} 
.ends

.model D_PAL_20SMLCA2 ugate (
+	tplhty=15ns	tplhmx=30ns
+	tphlty=15ns	tphlmx=30ns
+	)
*$
*-------------------------------------------------------------------------
* 20-Pin Medium PAL Family
*
*$
*---------
* PAL16L8
*
* Programmable Logic Devices Databook and Design Guide,
* 1989 Edition, National Semiconductor
* muw   05/22/91	Created

.subckt PAL16L8  PIN1 PIN2 PIN3 PIN4 PIN5 PIN6 PIN7 PIN8 PIN9 PIN11 PIN12 PIN13
+	PIN14 PIN15 PIN16 PIN17 PIN18 PIN19
+	optional: PIN20=$G_DPWR PIN10=$G_DGND
+	params: MNTYMXDLY=0 IO_LEVEL=0
+	text: JEDEC_FILE="PAL.JED"
U1 plandc(16,64) pin20 pin10
+	pin2	pin1	pin3	pin18	pin4	pin17	pin5	pin16
+	pin6	pin15	pin7	pin14	pin8	pin13	pin9	pin11
+	row1	row2	row3	row4	row5	row6	row7	row8
+	row9	row10	row11	row12	row13	row14	row15	row16
+	row17	row18	row19	row20	row21	row22	row23	row24
+	row25	row26	row27	row28	row29	row30	row31	row32
+	row33	row34	row35	row36	row37	row38	row39	row40
+	row41	row42	row43	row44	row45	row46	row47	row48
+	row49	row50	row51	row52	row53	row54	row55	row56
+	row57	row58	row59	row60	row61	row62	row63	row64
+	D0_PLD IO_LS MNTYMXDLY={MNTYMXDLY} IO_LEVEL={IO_LEVEL}
+	FILE=|JEDEC_FILE| 
U2 ora(7,8) pin20 pin10
+	row2	row3	row4	row5	row6	row7	row8
+	row10	row11	row12	row13	row14	row15	row16
+	row18	row19	row20	row21	row22	row23	row24
+	row26	row27	row28	row29	row30	row31	row32
+	row34	row35	row36	row37	row38	row39	row40
+	row42	row43	row44	row45	row46	row47	row48
+	row50	row51	row52	row53	row54	row55	row56
+	row58	row59	row60	row61	row62	row63	row64
+	out19	out18	out17	out16	out15	out14	out13	out12
+	D0_gate IO_LS 
U3 inv3 pin20 pin10
+	out19   row1   pin19 
+	D_PAL_20MEDP IO_LS MNTYMXDLY={MNTYMXDLY} IO_LEVEL={IO_LEVEL} 
U4 inv3 pin20 pin10
+	out18   row9   pin18 
+	D_PAL_20MEDP IO_LS MNTYMXDLY={MNTYMXDLY} IO_LEVEL={IO_LEVEL} 
U5 inv3 pin20 pin10
+	out17   row17   pin17 
+	D_PAL_20MEDP IO_LS MNTYMXDLY={MNTYMXDLY} IO_LEVEL={IO_LEVEL} 
U6 inv3 pin20 pin10
+	out16   row25   pin16 
+	D_PAL_20MEDP IO_LS MNTYMXDLY={MNTYMXDLY} IO_LEVEL={IO_LEVEL} 
U7 inv3 pin20 pin10
+	out15   row33   pin15 
+	D_PAL_20MEDP IO_LS MNTYMXDLY={MNTYMXDLY} IO_LEVEL={IO_LEVEL} 
U8 inv3 pin20 pin10
+	out14   row41   pin14 
+	D_PAL_20MEDP IO_LS MNTYMXDLY={MNTYMXDLY} IO_LEVEL={IO_LEVEL} 
U9 inv3 pin20 pin10
+	out13   row49   pin13 
+	D_PAL_20MEDP IO_LS MNTYMXDLY={MNTYMXDLY} IO_LEVEL={IO_LEVEL} 
UA inv3 pin20 pin10
+	out12   row57   pin12 
+	D_PAL_20MEDP IO_LS MNTYMXDLY={MNTYMXDLY} IO_LEVEL={IO_LEVEL} 
.ends

.model D_PAL_20MEDP utgate ( ; product term enabled output
+	tplhty=25ns	tplhmx=35ns
+	tphlty=25ns	tphlmx=35ns
+	tplzty=25ns	tplzmx=35ns
+	tphzty=25ns	tphzmx=35ns
+	tpzlty=25ns	tpzlmx=35ns
+	tpzhty=25ns	tpzhmx=35ns
+	)
*$
*---------
* PAL16R4
*
* Programmable Logic Devices Databook and Design Guide,
* 1989 Edition, National Semiconductor
* muw   05/22/91	Created

.subckt PAL16R4  PIN1 PIN2 PIN3 PIN4 PIN5 PIN6 PIN7 PIN8 PIN9 PIN11 PIN12 PIN13
+	PIN14 PIN15 PIN16 PIN17 PIN18 PIN19
+	optional: PIN20=$G_DPWR PIN10=$G_DGND
+	params: MNTYMXDLY=0 IO_LEVEL=0
+	text: JEDEC_FILE="PAL.JED"
U1 plandc(16,64) pin20 pin10
+	pin2	pin19	pin3	pin18	pin4	q_17	pin5	q_16
+	pin6	q_15	pin7	q_14	pin8	pin13	pin9	pin12
+	row1	row2	row3	row4	row5	row6	row7	row8
+	row9	row10	row11	row12	row13	row14	row15	row16
+	row17	row18	row19	row20	row21	row22	row23	row24
+	row25	row26	row27	row28	row29	row30	row31	row32
+	row33	row34	row35	row36	row37	row38	row39	row40
+	row41	row42	row43	row44	row45	row46	row47	row48
+	row49	row50	row51	row52	row53	row54	row55	row56
+	row57	row58	row59	row60	row61	row62	row63	row64
+	D0_PLD IO_LS MNTYMXDLY={MNTYMXDLY} IO_LEVEL={IO_LEVEL}
+	FILE=|JEDEC_FILE| 
U2 ora(7,4) pin20 pin10
+	row2	row3	row4	row5	row6	row7	row8
+	row10	row11	row12	row13	row14	row15	row16
+	row50	row51	row52	row53	row54	row55	row56
+	row58	row59	row60	row61	row62	row63	row64
+	out19	out18	out13	out12
+	D0_gate IO_LS 
UB ora(8,4) pin20 pin10
+	row17	row18	row19	row20	row21	row22	row23	row24
+	row25	row26	row27	row28	row29	row30	row31	row32
+	row33	row34	row35	row36	row37	row38	row39	row40
+	row41	row42	row43	row44	row45	row46	row47	row48
+	d17	d16	d15	d14
+	D0_gate IO_LS 
UC dff(4) pin20 pin10
+	$d_hi	$d_hi	pin1
+	d17	d16	d15	d14
+	out17	out16	out15	out14	qr_17	qr_16	qr_15	qr_14
+	D_PAL_20MED_REG IO_LS MNTYMXDLY={MNTYMXDLY} IO_LEVEL={IO_LEVEL} 
UD bufa(4) pin20 pin10
+	qr_17 qr_16 qr_15 qr_14   q_17 q_16 q_15 q_14 
+	D_PAL_20MEDD IO_LS MNTYMXDLY={MNTYMXDLY} IO_LEVEL={IO_LEVEL} 
UF inv pin20 pin10
+	pin11   regen 
+	D0_gate IO_LS MNTYMXDLY={MNTYMXDLY} IO_LEVEL={IO_LEVEL} 
U3 inv3 pin20 pin10
+	out19   row1   pin19 
+	D_PAL_20MEDP IO_LS MNTYMXDLY={MNTYMXDLY} IO_LEVEL={IO_LEVEL} 
U4 inv3 pin20 pin10
+	out18   row9   pin18 
+	D_PAL_20MEDP IO_LS MNTYMXDLY={MNTYMXDLY} IO_LEVEL={IO_LEVEL} 
U5 inv3 pin20 pin10
+	out17   regen   pin17 
+	D_PAL_20MEDR IO_LS MNTYMXDLY={MNTYMXDLY} IO_LEVEL={IO_LEVEL} 
U6 inv3 pin20 pin10
+	out16   regen   pin16 
+	D_PAL_20MEDR IO_LS MNTYMXDLY={MNTYMXDLY} IO_LEVEL={IO_LEVEL} 
U7 inv3 pin20 pin10
+	out15   regen   pin15 