* Library of diode model parameters
*
*  Copyright OrCAD, Inc. 1998 All Rights Reserved.
*
* $Revision:   1.27  $
* $Author:   rperez  $
* $Date:   04 Nov 1998 09:51:08  $


*----------------------------------------------------------------------------
* OrCAD Incorporated would like to acknowledge Sandia National Laboratories
* for the contribution of their measurement-based models included in this
* library.
*----------------------------------------------------------------------------
* The parameters in this model library were derived from the data sheets for
* each part.  Most parts were characterized using the Parts option.
*----------------------------------------------------------------------------
*$
* created using Parts release 7.1p on 08/28/96 at 08:40
* Data from Motorola 1N3882(similar part): 
* Trr(est)=150ns; Cj=(1, 90p), (7,60p), (100, 31p);
* Vz(est)=330v@10ma
.SUBCKT BY249-300 1 2
D1	1	2	DFWD
D1A	1	2	DXTRA

.MODEL DFWD D
+ IS=17.26627E-12
+ N=1.88563
+ RS=21.99482E-3
+ IKF=0.999979
+ CJO=117.72E-12
+ M=.25488
+ VJ=.53537
+ ISR=66.24368E-6
+ NR=2.63527
+ BV=330.0845
+ IBV=.25878
+ TT=216.40E-9

.MODEL DXTRA    D  
+ IS = 2.556412E-12
+ RS = 4.959919E-3
+ N = 1.24864
+ IKF = 2.55086E-3
+ TT = 0
+ CJO = 0
+ VJ = 1
+ M = .5
+ EG = 1.11
+ XTI = 3
+ KF = 0
+ AF = 1
+ FC = .5
+ BV = 1E5
+ IBV = .001

.ENDS
*$
* created using Parts release 7.1p on 07/31/96 at 15:53
.MODEL BYT12P1000 D
+ IS=4.500004E-5
+ N=3.32469
+ RS=2.455332E-2
+ CJO=86.782E-12
+ M=.15658
+ VJ=.75
+ ISR=10.010E-24
+ NR=2
+ BV=1.3401E3
+ IBV=38.899E-3
+ TT=213.62E-9
*$
* created using Parts release 7.1p on 07/31/96 at 10:46
.MODEL BYT12P600 D
+ IS=4.999888E-5
+ N=2.97247
+ RS=2.732469e-002
+ CJO=84.683E-12
+ M=.14331
+ VJ=.75
+ ISR=10.010E-21
+ NR=2
+ BV=804.05
+ IBV=38.900E-3
+ TT=160.96E-9
*$
* created using Parts release 7.1p on 08/01/96 at 10:21

.SUBCKT BYT231PIV-400 1 2
D1A	1	2	DPART
D1B	1	2	DXTRA

.MODEL DPART D		(
+ IS=7.854365e-008
+ N=2.12757
+ RS=8.455824e-003
+ IKF=0
+ CJO=607.23E-12
+ M=.3333
+ VJ=.75
+ ISR=3.348311e-006
+ NR=2.31978
+ BV=508.07
+ IBV=55.565E-3
+ TT=96.921E-9
+ )

.MODEL DXTRA    D  
+ IS = 27.49141E-12
+ N = 1.86587
+ RS = 1.879653E-3
+ IKF = 0.030315
+ TT = 0
+ CJO = 0
+ VJ = 1
+ M = .5
+ EG = 1.11
+ XTI = 3
+ KF = 0
+ AF = 1
+ FC = .5
+ BV = 1E5
+ IBV = .001

.ENDS
*$
* created using Parts release 7.1p on 08/12/96 at 10:40
.SUBCKT BYT261PIV-400 1 2
D1	1	2	DFWD

.MODEL DFWD D
+ IS=50.001E-6
+ N=2.5802
+ RS=1.1910E-3
+ IKF=6.1501
+ CJO=360.00E-12
+ M=.26751
+ VJ=.75
+ ISR=10.010E-24
+ NR=2.0100
+ BV=508.04
+ IBV=32.412E-3
+ TT=115.84E-9

.ENDS
*$
* created using Parts release 7.1p on 08/09/96 at 11:14
.SUBCKT BYT30P400 1 2
D1A	1	2	DFWD
D1B	1	2	DXTRA

.MODEL DFWD D
+ IS=230.7686E-15
+ N=1.43709
+ RS=11.52701E-3
+ CJO=607.23E-12
+ M=.3333
+ VJ=.75
+ ISR=3.697595E-6
+ NR=2.28243
+ IKF=2.18401
+ BV=507.675
+ IBV=55.564E-6
+ TT=97.84E-9

.MODEL DXTRA    D  
+ IS = 19.81776E-15
+ RS = 3.803747E-3
+ N = 1.32545
+ IKF = 0.00159295
+ TT = 0
+ CJO = 0
+ VJ = 1
+ M = .5
+ EG = 1.11
+ XTI = 3
+ KF = 0
+ AF = 1
+ FC = .5
+ BV = 1E5
+ IBV = .001

.ENDS
*$
* created using Parts release 7.1p on 08/12/96 at 13:51
.MODEL BYT30P600 D
+ IS=2.070346E-6
+ N=2.46001
+ RS=3.863760E-3
+ IKF=1.73307
+ CJO=370.00E-12
+ M=.27998
+ VJ=.75
+ ISR=1.3527E-5
+ NR=4.30446
+ BV=762.053
+ IBV=70.670E-3
+ TT=137.70E-9
*$
* created using Parts release 7.1p on 08/13/96 at 08:35
.SUBCKT BYV27-100 1 2
D1	1	2	DFWD
D1B	2	1	DLEAK
RLEAK	1	2	766.787Meg

.MODEL DFWD D
+ IS=649.6436E-15
+ N=1.31702
+ RS=74.69921E-3
+ IKF=64.99220E-6
+ CJO=99.8188E-12
+ M=0.39727
+ VJ=.889564
+ ISR=6.811101E-9
+ NR=1.5768
+ BV=113.30
+ IBV=10
+ TT=37.326E-9

.MODEL DLEAK    D  
+ IS = 4.556853E-12
+ RS = 0.1
+ N = 378.369
+ TT = 0
+ CJO = 0
+ VJ = 1
+ M = .5
+ EG = 1.11
+ XTI = 3
+ KF = 0
+ AF = 1
+ FC = .5
+ BV = 1E5
+ IBV = .001

.ENDS
*$
* created using Parts release 7.1p on 08/13/96 at 11:41
.SUBCKT BYV27-150 1 2
D1	1 	2	DFWD
D1A	2	1	DLEAK

.MODEL DFWD D
+ IS=179.8626E-18
+ N=1.66411
+ RS=73.003E-3
+ CJO=99.819E-12
+ M=.39727
+ VJ=.88956
+ ISR=9.748870E-9
+ NR=1.61411
+ BV=169.80
+ IBV=10
+ TT=37.326E-9

.MODEL DLEAK    D  
+ IS = 12.84740E-9
+ RS = 0.001
+ N = 1985.93
+ TT = 0
+ CJO = 0
+ VJ = 1
+ M = .5
+ EG = 1.11
+ XTI = 3
+ KF = 0
+ AF = 1
+ FC = .5
+ BV = 1E5
+ IBV = .001

.ENDS
*$
* created using Parts release 7.1p on 08/13/96 at 08:35
.SUBCKT BYV27-200 1 2
D1	1	2	DFWD
D1A	2	1	DLEAK	

.MODEL DFWD D
+ IS=4.492575E-12
+ N=1.19283
+ RS=0.0730016
+ IKF=0.208588
+ CJO=99.8188E-12
+ M=0.39727
+ VJ=.889564
+ ISR=9.804956E-9
+ NR=1.65414
+ BV=226.2977
+ IBV=10
+ TT=37.326E-9

.MODEL DLEAK    D  
+ IS = 7.284671E-9
+ RS = 0.1
+ N = 2256.96
+ TT = 0
+ CJO = 0
+ VJ = 1
+ M = .5
+ EG = 1.11
+ XTI = 3
+ KF = 0
+ AF = 1
+ FC = .5
+ BV = 1E5
+ IBV = .001

.ENDS
*$
* created using Parts release 7.1p on 08/13/96 at 14:01
.SUBCKT BYV28-150 1 2
DFWD	1	2	DFWD
RLEAK	1	2	370.513Meg

.MODEL DFWD D
+ IS=2.507543E-12
+ N=1.732
+ RS=57.725916E-3
+ CJO=235.72E-12
+ M=.30923
+ VJ=.39984
+ ISR=31.18841E-9
+ NR=1.42772
+ BV=175.70
+ IBV=2.5886
+ TT=40.058E-9
.ENDS
*$
* created using Parts release 7.1p on 08/15/96 at 15:37
.SUBCKT BYW29-150 1 2
D1	1	2	DFWD
RLEAK	1	2	266.473Meg

.MODEL DFWD D
+ IS=87.53690E-9
+ N=1.5627
+ RS=5.072165E-3
+ IKF=0.353336
+ CJO=83.317E-12
+ M=.32642
+ VJ=.3905
+ ISR=10.01000E-21
+ NR=4.995
+ BV=171.20
+ IBV=2.5885
+ TT=38.881E-9

.ENDS
*$
* created using Parts release 7.1p on 08/15/96 at 15:37
.SUBCKT BYW29-200 1 2
D1	1	2	DFWD
RLEAK	1	2	355.562Meg

.MODEL DFWD D
+ IS=87.50011E-9
+ N=1.5627
+ RS=5.072165E-3
+ IKF=0.353336
+ CJO=83.31700E-12
+ M=0.327566
+ VJ=0.3905
+ ISR=10.01000E-21
+ NR=4.995
+ BV=228.20
+ IBV=2.5877
+ TT=38.881E-9

.ENDS
*$
* created using Parts release 7.1p on 08/23/96 at 11:42
* per manufacturer est.: Vz(est)=45v@100ma; TT(est)=0s
.SUBCKT D120NQ045 1 2
D1	1	2	DFWD
D2	2	1	DLEAK
R1	1	2	228.722k

.MODEL DFWD D
+ IS=11.13717E-6
+ N=0.520057
+ RS=1.020740E-3
+ IKF=184.112E-6
+ XTI=2
+ EG=.6900
+ CJO=11.509E-9
+ M=.49488
+ VJ=.75
+ ISR=225.7639E-12
+ NR=2
+ BV=44.905
+ IBV=2.5867E-3
+ TT=0

.MODEL DLEAK    D  
+ IS = 186.0702E-12
+ RS = .1
+ N = 99.2231
+ TT = 0
+ CJO = 0
+ VJ = 1
+ M = .5
+ EG = .69
+ XTI = 2
+ KF = 0
+ AF = 1
+ FC = .5
+ BV = 1E5
+ IBV = .001

.ENDS
*$
* created using Parts release 7.1p on 08/26/96 at 08:09
* per manufacturer est.: Vz(est)=45v@100ma; TT(est)=0s
.SUBCKT D180NQ045 1 2
D1	1	2	DFWD
D2	2	1	DLEAK
R1	1	2	125.164k

.MODEL DFWD D
+ IS=10.05152E-6
+ N=0.901323
+ RS=667.0661E-6
+ IKF=11.3397
+ XTI=2
+ EG=0.69
+ CJO=16.624E-9
+ M=.48421
+ VJ=.75
+ ISR=225.7639E-12
+ NR=1.9468
+ BV=44.965
+ IBV=25.866E-3
+ TT=0

.MODEL DLEAK    D  
+ IS = 67.39687E-12
+ RS = 0.1
+ N = 99.6519
+ TT = 0
+ CJO = 0
+ VJ = 1
+ M = .5
+ EG = .69
+ XTI = 2
+ KF = 0
+ AF = 1
+ FC = .5
+ BV = 1E5
+ IBV = .001

.ENDS
*$
.model D1N1190  D(Is=1.331u N=2.108 Rs=1.029m Ikf=11.73 Xti=3 Eg=1.11 Cjo=1p
+               M=.5 Vj=.7 Fc=.5 Isr=40.74u Nr=2 Bv=400 Ibv=100u Tt=5n)
*$
.model D1N3063  D(Is=2.989n N=1.704 Rs=3.886 Ikf=26.84 Xti=3 Eg=1.11 Cjo=2p
+               M=.3333 Vj=.75 Fc=.5 Isr=100p Nr=2 Bv=75 Ibv=5u Tt=5.771n)
*$
.model D1N3064  D(Is=168.1E-21 N=1 Rs=.1 Ikf=0 Xti=3 Eg=1.11 Cjo=2p M=.3333
+               Vj=.75 Fc=.5 Isr=24.54n Nr=2 Bv=100 Ibv=100u Tt=5.771n)
*$
.model D1N3491	D(Is=68.65f Rs=3.786m Ikf=1.774 N=1 Xti=2 Eg=1.11 Cjo=1.457n
+		M=.9735 Vj=.75 Fc=.5 Isr=11.02u Nr=2 Tt=6.059u)
*		Motorola	pid=1N3491	case=DO21
*		88-08-24 rmn
*$
.model D1N3492	D(Is=68.65f Rs=3.786m Ikf=1.774 N=1 Xti=2 Eg=1.11 Cjo=1.457n
+		M=.9735 Vj=.75 Fc=.5 Isr=5.651u Nr=2 Tt=6.059u)
*		Motorola	pid=1N3491	case=DO21
*		88-08-24 rmn
*$
.model D1N3493	D(Is=68.65f Rs=3.786m Ikf=1.774 N=1 Xti=2 Eg=1.11 Cjo=1.457n
+		M=.9735 Vj=.75 Fc=.5 Isr=2.888u Nr=2 Tt=6.059u)
*		Motorola	pid=1N3491	case=DO21
*		88-08-24 rmn
*$
.model D1N3494	D(Is=68.65f Rs=3.786m Ikf=1.774 N=1 Xti=2 Eg=1.11 Cjo=1.457n
+		M=.9735 Vj=.75 Fc=.5 Isr=1.949u Nr=2 Tt=6.059u)
*		Motorola	pid=1N3491	case=DO21
*		88-08-24 rmn
*$
.model D1N3495	D(Is=68.65f Rs=3.786m Ikf=1.774 N=1 Xti=2 Eg=1.11 Cjo=1.457n
+		M=.9735 Vj=.75 Fc=.5 Isr=1.474u Nr=2 Tt=6.059u)
*		Motorola	pid=1N3491	case=DO21
*		88-08-24 rmn
*$
.model D1N3501  D(Is=10f N=1 Rs=.1 Ikf=0 Xti=3 Eg=1.11 Cjo=168.9p M=.1794
+               Vj=.3905 Fc=.5 Isr=678.5n Nr=2 Bv=6.444 Ibv=.2898 Tt=7.213u)
*$
.model D1N3600  D(Is=8.845E-18 N=.7522 Rs=1.22 Ikf=21.53 Xti=3 Eg=1.11 Cjo=2.5p
+               M=.3333 Vj=.75 Fc=.5 Isr=2.668u Nr=2 Bv=75 Ibv=100u Tt=8.656n)
*$
.model D1N3604  D(Is=980.8E-21 N=1 Rs=.1 Ikf=0 Xti=3 Eg=1.11 Cjo=2p M=.3333
+               Vj=.75 Fc=.5 Isr=12.27n Nr=2 Bv=75 Ibv=5u Tt=5.771n)
*$
.model D1N3605  D(Is=1.098n N=1.659 Rs=1.156 Ikf=8.872 Xti=3 Eg=1.11 Cjo=2p
+               M=.3333 Vj=.75 Fc=.5 Isr=14.18n Nr=2 Bv=40 Ibv=5u Tt=5.771n)
*$
.model D1N3606  D(Is=1.098n N=1.659 Rs=1.156 Ikf=8.872 Xti=3 Eg=1.11 Cjo=2p
+               M=.3333 Vj=.75 Fc=.5 Isr=12n Nr=2 Bv=75 Ibv=5u Tt=5.771n)
*$
.model D1N3879	D(Is=1.058E-18 Rs=11.56m Ikf=2.349 N=1 Xti=14 Eg=1.11 Cjo=113.2p
+		M=.2834 Vj=.75 Fc=.5 Isr=908.6n Nr=2 Tt=369.9n)
*		Motorola	pid=1N3879	case=DO4
*		88-08-25 rmn
*$
.model D1N3880	D(Is=1.058E-18 Rs=11.56m Ikf=2.349 N=1 Xti=14 Eg=1.11 Cjo=113.2p
+		M=.2834 Vj=.75 Fc=.5 Isr=798n Nr=2 Tt=369.9n)
*		Motorola	pid=1N3879	case=DO4
*		88-08-25 rmn
*$
.model D1N3881	D(Is=1.058E-18 Rs=11.56m Ikf=2.349 N=1 Xti=14 Eg=1.11 Cjo=113.2p
+		M=.2834 Vj=.75 Fc=.5 Isr=820.5n Nr=2 Tt=369.9n)
*		Motorola	pid=1N3879	case=DO4
*		88-08-25 rmn
*$
.model D1N3882	D(Is=1.058E-18 Rs=11.56m Ikf=2.349 N=1 Xti=14 Eg=1.11 Cjo=113.2p
+		M=.2834 Vj=.75 Fc=.5 Isr=887.2n Nr=2 Tt=369.9n)
*		Motorola	pid=1N3879	case=DO4
*		88-08-25 rmn
*$
.model D1N3883	D(Is=1.058E-18 Rs=11.56m Ikf=2.349 N=1 Xti=14 Eg=1.11 Cjo=113.2p
+		M=.2834 Vj=.75 Fc=.5 Isr=994.9n Nr=2 Tt=369.9n)
*		Motorola	pid=1N3879	case=DO4
*		88-08-25 rmn
*$
.model D1N3889	D(Is=15.03f Rs=9.606m Ikf=.2003 N=1 Xti=3 Eg=1.11 Cjo=117.8p
+		M=.2976 Vj=.75 Fc=.5 Isr=770.3n Nr=2 Tt=369.9n)
*		Motorola	pid=1N3889	case=DO4
*		88-08-25 rmn
*$
.model D1N3890	D(Is=15.03f Rs=9.606m Ikf=.2003 N=1 Xti=3 Eg=1.11 Cjo=117.8p
+		M=.2976 Vj=.75 Fc=.5 Isr=684.1n Nr=2 Tt=369.9n)
*		Motorola	pid=1N3889	case=DO4
*		88-08-25 rmn
*$
.model D1N3891	D(Is=15.03f Rs=9.606m Ikf=.2003 N=1 Xti=3 Eg=1.11 Cjo=117.8p
+		M=.2976 Vj=.75 Fc=.5 Isr=672.7n Nr=2 Tt=369.9n)
*		Motorola	pid=1N3889	case=DO4
*		88-08-25 rmn
*$
.model D1N3892	D(Is=15.03f Rs=9.606m Ikf=.2003 N=1 Xti=3 Eg=1.11 Cjo=117.8p
+		M=.2976 Vj=.75 Fc=.5 Isr=705.6n Nr=2 Tt=369.9n)
*		Motorola	pid=1N3889	case=DO4
*		88-08-25 rmn
*$
.model D1N3893	D(Is=15.03f Rs=9.606m Ikf=.2003 N=1 Xti=3 Eg=1.11 Cjo=117.8p
+		M=.2976 Vj=.75 Fc=.5 Isr=809.8n Nr=2 Tt=369.9n)
*		Motorola	pid=1N3889	case=DO4
*		88-08-25 rmn
*$
.model D1N3899	D(Is=5.62f Rs=6.414m Ikf=9.692 N=1 Xti=2 Eg=1.11 Cjo=144.1p
+		M=.2272 Vj=.75 Fc=.5 Isr=1.036u Nr=2 Tt=521.4n)
*		Motorola	pid=1N3899	case=DO5
*		88-08-30 rmn
*$
.model D1N3900	D(Is=5.62f Rs=6.414m Ikf=9.692 N=1 Xti=2 Eg=1.11 Cjo=144.1p
+		M=.2272 Vj=.75 Fc=.5 Isr=985.4n Nr=2 Tt=521.4n)
*		Motorola	pid=1N3899	case=DO5
*		88-08-30 rmn
*$
.model D1N3901	D(Is=5.62f Rs=6.414m Ikf=9.692 N=1 Xti=2 Eg=1.11 Cjo=144.1p
+		M=.2272 Vj=.75 Fc=.5 Isr=997n Nr=2 Tt=521.4n)
*		Motorola	pid=1N3899	case=DO5
*		88-08-30 rmn
*$
.model D1N3902	D(Is=5.62f Rs=6.414m Ikf=9.692 N=1 Xti=2 Eg=1.11 Cjo=144.1p
+		M=.2272 Vj=.75 Fc=.5 Isr=1.076u Nr=2 Tt=521.4n)
*		Motorola	pid=1N3899	case=DO5
*		88-08-30 rmn
*$
.model D1N3903	D(Is=5.62f Rs=6.414m Ikf=9.692 N=1 Xti=2 Eg=1.11 Cjo=144.1p
+		M=.2272 Vj=.75 Fc=.5 Isr=1.248u Nr=2 Tt=521.4n)
*		Motorola	pid=1N3899	case=DO5
*		88-08-30 rmn
*$
.model D1N3909	D(Is=20.07f Rs=3.842m Ikf=2.963 N=1 Xti=3 Eg=1.11 Cjo=111.7p
+		M=.2683 Vj=.75 Fc=.5 Isr=887.6n Nr=2 Tt=369.9n)
*		Motorola	pid=1N3909	case=DO5
*		88-08-30 rmn
*$
.model D1N3910	D(Is=20.07f Rs=3.842m Ikf=2.963 N=1 Xti=3 Eg=1.11 Cjo=111.7p
+		M=.2683 Vj=.75 Fc=.5 Isr=805.6n Nr=2 Tt=369.9n)
*		Motorola	pid=1N3909	case=DO5
*		88-08-30 rmn
*$
.model D1N3911	D(Is=20.07f Rs=3.842m Ikf=2.963 N=1 Xti=3 Eg=1.11 Cjo=111.7p
+		M=.2683 Vj=.75 Fc=.5 Isr=825.8n Nr=2 Tt=369.9n)
*		Motorola	pid=1N3909	case=DO5
*		88-08-30 rmn
*$
.model D1N3912	D(Is=20.07f Rs=3.842m Ikf=2.963 N=1 Xti=3 Eg=1.11 Cjo=111.7p
+		M=.2683 Vj=.75 Fc=.5 Isr=851.1n Nr=2 Tt=369.9n)
*		Motorola	pid=1N3909	case=DO5
*		88-08-30 rmn
*$
.model D1N3913	D(Is=20.07f Rs=3.842m Ikf=2.963 N=1 Xti=3 Eg=1.11 Cjo=111.7p
+		M=.2683 Vj=.75 Fc=.5 Isr=973.4n Nr=2 Tt=369.9n)
*		Motorola	pid=1N3909	case=DO5
*		88-08-30 rmn
*$
*
* GENERIC FUNCTIONAL EQUIVALENT = 1N3940
* TYPE:  DIODE
* SUBTYPE:  RECTIFIER
*
* THIS IS A TEMPERATURE TRACKING MODEL WHICH  WAS CONSTRUCTED FROM
* PRODUCT SPECIFICATION LIMITS AND MEASUREMENTS MADE  ON ONE DEVICE.
* THE MODEL IS INTENDED FOR USE FROM -55 C TO 125 C.  NO RADIATION EFFECTS
* ARE INCLUDED.  SIMULATIONS USING THIS MODEL REPRESENT THE RESPONSES OF
* NOMINAL DEVICES AND SIMULATIONS ARE ACCURATE WITHIN THE LIMITS OF THE
* PRODUCT SPECIFICATION.
*
.MODEL D1N3940 D(
+         IS = 4E-10
+         RS = .105
+          N = 1.48
+         TT = 8E-7
+        CJO = 1.95E-11
+         VJ = .4
+          M = .38
+         EG = 1.36
+        XTI = -8
+         KF = 0
+         AF = 1
+         FC = .9
+         BV = 600
+        IBV = 1E-4
+ )
*
*$
.model D1N4001	D(Is=14.11n N=1.984 Rs=33.89m Ikf=94.81 Xti=3 Eg=1.11
+		Cjo=25.89p M=.44 Vj=.3245 Fc=.5 Bv=75 Ibv=10u Tt=5.7u)
*		Motorola
*		Semiconductor Databook (mid 1970s)
*		03 Jun 91	pwt	creation
*$
.MODEL D1N4002 D (IS=14.11E-9  N=1.984  RS=33.89E-3  IKF=94.81  XTI=3
+ EG=1.110  CJO=51.17E-12  M=.2762  VJ=.3905  FC=.5  ISR=100.0E-12
+ NR=2  BV=100.1  IBV=10  TT=4.761E-6)
*$
.model D1N4003 ako:D1N4001 D(Bv=300)	; use non-rep. peak voltage
*$
*
* BV, IBV, EG HAVE NOT BEEN EXTRACTED AND ARE SET TO DEFAULT VALUES.
*
* MEASURED TRR = 203.5NS, SIMULATED TRR = 208.2NS.
*
*
* RAD: PRERAD
* TEMP: 125
*
*
.SUBCKT D1N4003/125C 99   2
D1   99    2 DFOR
C1    2   99 9.36289E-12
.MODEL DFOR  D          (
+         IS = 5.5415E-9
+         RS = 0.1
+          N = 1.732494
+         TT = 7.05E-7
+        CJO = 4.31731E-12
+         VJ = 0.4421822
+          M = 1.90735
+         EG = 1.11
+        XTI = 5.642014
+         KF = 0
+         AF = 1
+         FC = 0.8991
+         BV = 1E5
+        IBV = 1E-3
+ )
.ENDS
*$
*
* MANUFACTURERS PART NO. = THD4003
* MANUFACTURER = SPRAGUE
* TYPE: DIODE
* SUBTYPE: RECTIFIER
* THE FOLLOWING SECTION CONTAINS 3 PARAMETER SETS FOR NON-IRRADIATED
* DEVICES AT VARYING TEMPERATURES OF THE 1N4003
* PARAMETER MODELS EXTRACTED FROM MEASURED DATA
*
*** CAUTION: USE ONLY AT TEMPERATURE SPECIFIED.  ANY DEVIATION FROM THIS
*             TEMPERATURE WILL PRODUCE INCORRECT RESULTS.
* XTI, EG HAVE NOT BEEN EXTRACTED AND ARE SET TO DEFAULT VALUES.
*
* MEASURED TRR = 337.6NS, SIMULATED TRR =336.6NS.
*
* RAD: PRERAD
* TEMP: 27
*
*
.SUBCKT D1N4003/27C 99   2
D1   99    2 DFOR
C1    2   99 9.36289E-12
.MODEL DFOR  D          (
+         IS = 6.12912E-9
+         RS = 0.1035407
+          N = 1.705596
+         TT = 4.65E-7
+        CJO = 4.31731E-12
+         VJ = 0.4421822
+          M = 1.90735
+         EG = 1.11
+        XTI = 3
+         KF = 0
+         AF = 1
+         FC = 0.8991
+         BV = 417
+        IBV = 1E-6
+ )
.ENDS
*$
*
* MANUFACTURERS PART NO. = THD4003
* MANUFACTURER = SPRAGUE
* TYPE: DIODE
* SUBTYPE: RECTIFIER
* THE FOLLOWING SECTION CONTAINS 2 PARAMETER SETS AT VARIOUS POST
* NEUTRON RADIATION LEVELS OF THE 1N4003.
* PARAMETER SETS EXTRACTED FROM MEASURED DATA
*
*** CAUTION: USE ONLY AT TEMPERATURE SPECIFIED. ANY DEVIATION FROM THIS
* XTI, EG HAVE NOT BEEN EXTRACTED AND ARE SET TO DEFAULT VALUES.
*
* MEASURED TRR = 110.7NS, SIMULATED TRR = 108.9NS.
*
* RAD: 3.08E13
* TYPE: NEUTRON
* TEMP: 27
*
*
.MODEL D1N4003/27C/RAD1  D       (
+         IS = 1.34779E-7
+         RS = 0.1
+          N = 2.067915
+         TT = 1.48E-7
+        CJO = 2.17106E-11
+         VJ = 0.4
+          M = 0.390894
+         EG = 1.11
+        XTI = 3
+         KF = 0
+         AF = 1
+         FC = 0.809613
+         BV = 345
+        IBV = 1E-6
+)
*$
*
*
* BV, IBV, XTI, EG HAVE NOT BEEN EXTRACTED AND ARE SET TO DEFAULT VALUES.
*
* MEASURED TRR = 12.8NS, SIMULATED TRR = 13NS.
*
* RAD: 3.07E14
* TYPE: NEUTRON
* TEMP: 27
*
*
.MODEL D1N4003/27C/RAD2  D       (
+         IS = 4.30065E-7
+         RS = 0.243508
+          N = 2.603175
+         TT = 1.69E-8
+        CJO = 8.55433E-12
+         VJ = 0.7143081
+          M = 0.2393511
+         EG = 1.11
+        XTI = 3
+         KF = 0
+         AF = 1
+         FC = 0.5
+         BV = 1E5
+        IBV = 1E-3
+ )
*$
*
*
* EG HAS NOT BEEN EXTRACTED AND IS SET TO A DEFAULT VALUE.
*
* MEASURED TRR = 203.5NS, SIMULATED TRR = 208.2NS.
*
* RAD: PRERAD
* TEMP: -55
*
*
.SUBCKT D1N4003/-55C 99   2
D1   99    2 DFOR
C1    2   99 9.36289E-12
.MODEL DFOR  D          (
+         IS = 5.11588E-9
+         RS = 0.1
+          N = 1.738842
+         TT = 3.E-7
+        CJO = 4.31731E-12
+         VJ = 0.4421822
+          M = 1.90735
+         EG = 1.11
+        XTI = 2.167819
+         KF = 0
+         AF = 1
+         FC = 0.8991
+         BV = 1E5
+        IBV = 1E-3
+ )
.ENDS
*$
.model D1N4004 ako:D1N4001 D(Bv=600)	; use non-rep. peak voltage
*$
.model D1N4005 ako:D1N4001 D(Bv=900)	; use non-rep. peak voltage
*$
.model D1N4006 ako:D1N4001 D(Bv=1200)	; use non-rep. peak voltage
*$
.model D1N4007 ako:D1N4001 D(Bv=1500)	; use non-rep. peak voltage
*$
.model D1N4009  D(Is=544.7E-21 N=1 Rs=.1 Ikf=0 Xti=3 Eg=1.11 Cjo=4p M=.3333
+               Vj=.75 Fc=.5 Isr=30.77n Nr=2 Bv=25 Ibv=100u Tt=2.885n)
*$
*
* GENERIC FUNCTIONAL EQUIVALENT = 1N4097
* TYPE: DIODE
* SUBTYPE: VOLTAGE REG GP
* THIS IS A PRELIMINARY MODEL FOR THE SIMULATION OF THE DC CHARACTERISTICS
* OF THIS DEVICE.  THE PARAMETERS WERE EXTRACTED FROM MEASUREMENTS
* MADE ON  ONE DEVICE.  THE MODEL IS INTENDED FOR USE FROM -55 C TO 125 C.
* NO  RADIATION EFFECTS ARE INCLUDED.
*
.SUBCKT D1N4097 1 4
D1 1 4  DFOR
D2 4 2  DBLOCK
IC 3 2  22.4
RC 2 3  2.3 TC=1.69E-3,0
VB 3 1  48
RL 4 1  3.25E10 TC=-1.53E-2,1.24E-4
*
.MODEL DFOR D(
+         IS = 1.2E-12
+         RS = .1
+          N = 1.2
+         TT = 0
+        CJO = 0
+         VJ = 1
+          M = .5
+         EG = 1.09
+        XTI = 2.9
+         KF = 0
+         AF = 1
+         FC = .5
+         BV = 9.9999E+13
+        IBV = .001
+ )
*
.MODEL DBLOCK D(
+         IS = 1E-12
+         RS = 0
+          N = 1.37
+         TT = 0
+        CJO = 0
+         VJ = 1
+          M = .5
+         EG = .1
+        XTI = -3.5
+         KF = 0
+         AF = 1
+         FC = .5
+         BV = 9.9999E+13
+        IBV = .001
+ )
*
.ENDS
*$
.model D1N4148  D(Is=2.682n N=1.836 Rs=.5664 Ikf=44.17m Xti=3 Eg=1.11 Cjo=4p
+               M=.3333 Vj=.5 Fc=.5 Isr=1.565n Nr=2 Bv=100 Ibv=100u Tt=11.54n)
*$
*
*
* BV, IBV, XTI, EG HAVE NOT BEEN EXTRACTED AND ARE SET TO DEFAULT VALUES.
*
* MEASURED TRR = 10.40NS, SIMULATED TRR = 5.373NS.
*
* RAD: PRERAD
* TEMP= 125
.MODEL D1N4148/125C   D      (
+         IS = 6.42601E-9
+         RS = 0.7520202
+          N = 1.8485649
+         TT = 6.303E-9
+        CJO = 1.75198E-12
+         VJ = 0.4
+          M = 0.2289422
+         EG = 1.11
+        XTI = 3
+         KF = 0
+         AF = 1
+         FC = 0.8991
+         BV = 1E5
+        IBV = 1.0E-10
+ )
*$
*
* GENERIC FUNCTIONAL EQUIVALENT = 1N4148
* MANUFACTURER = MICROSEMI
* TYPE: DIODE
* SUBTYPE: SWITCHING
* THE FOLLOWING SECTION CONTAINS 3 PARAMETER SETS FOR NON-IRRADIATED
* DEVICES AT VARYING TEMPERATURES OF THE 1N4148-1JTXV DIODE.
* THIS MODEL CAN BE USED FOR ALL OF THE FOLLOWING DEVICES:
* 1N4148
* 1N4148-1
* 1N4148-1JTXV
* THE ROOM TEMPERATURE PRE-RAD PARAMETER SET SIMULATES NEARLY
* IDENTICALLY TO THE -55 AND THE 125 DEG C WHEN .TEMP IS USED.  THIS
* PARAMETER SET CAN BE USED AT ALL TEMPERATURES BETWEEN -55 AND 125 DEG
* C.
*
* PARAMETER SETS EXTRACTED FROM MEASURED DATA
*
*** CAUTION: THE MEASURED TRR AND THE PSPICE CIRCUIT SIMULATED TRR ARE
* DIFFERENT.  THIS COULD POTENTIALLY LEAD TO ERRORS IN CIRCUIT SIMULATIONS
* IF USED AS A RECTIFIER OR SWITCHING DIODE.
*** CAUTION: USE ONLY AT TEMPERATURE SPECIFIED.  ANY DEVIATION FROM THIS
*            TEMPERATURE WILL PRODUCE INCORRECT RESULTS.
*
* BV, IBV, XTI, EG HAVE NOT BEEN EXTRACTED AND ARE SET TO DEFAULT VALUES.
*
* MEASURED TRR = 4.681NS, SIMULATED TRR = 6.544NS.
* RAD: PRERAD
* TEMP= 27
.MODEL D1N4148/27C   D      (
+         IS = 1.27106E-8
+         RS = 0.7546332
+          N = 1.9215823
+         TT = 3.679E-9
+        CJO = 1.72434E-12
+         VJ = 0.3026211
+          M = 0.2
+         EG = 1.11
+        XTI = 3
+         KF = 0
+         AF = 1
+         FC = 0.998001
+         BV = 1E5
+        IBV = 1.0E-10
+ )
*$
*
* 1N4148
* GENERIC FUNCTIONAL EQUIVALENT = 1N4148
* MANUFACTURER = MICROSEMI
* TYPE: DIODE
* SUBTYPE: SWITCHING
* THIS FILE CONTAINS 3 MODELS AT VARIOUS RADIATION LEVELS OF THE
* 1N4148-1JTXV DIODE.
* THIS MODEL CAN BE USED FOR ALL OF THE FOLLOWING DEVICES:
* 1N4148
* 1N4148-1
* 1N4148-1JTXV
* THE ROOM TEMPERATURE PRE-RAD PARAMETER SET SIMULATES NEARLY
* IDENTICALLY TO THE -55 AND THE 125 DEG C WHEN .TEMP IS USED.  THIS
* PARAMETER SET CAN BE USED AT ALL TEMPERATURES BETWEEN -55 AND 125 DEG C.
*
* PARAMETER SETS EXTRACTED FROM MEASURED DATA
*
*
*** CAUTION: THE MEASURED TRR AND THE PSPICE CIRCUIT SIMULATED TRR ARE
* DIFFERENT.  THIS COULD POTENTIALLY LEAD TO ERRORS IN CIRCUIT SIMULATIONS IF
* USED  AS A RECTIFIER OR SWITCHING DIODE.
*
*** CAUTION: USE ONLY AT TEMPERATURE SPECIFIED.  ANY DEVIATION FROM THIS
*            TEMPERATURE WILL PRODUCE INCORRECT RESULTS.
*
*
*
* XTI, EG HAVE NOT BEEN EXTRACTED AND ARE SET TO DEFAULT VALUES.
*
* MEASURED TRR = 5.99NS, SIMULATED TRR = 5.79NS.
*
*
* RAD: 5E12
* TYPE: NEUTRON
* TEMP: 27
*
*
.SUBCKT D1N4148/27C/RAD1 99   2
D1   99    2 DFOR
C1    2   99 1.2202E-12
.MODEL DFOR  D          (
+         IS = 1.04734E-8
+         RS = 0.7505
+          N = 1.873917
+         TT = 7.2E-9
+        CJO = 2.34983E-13
+         VJ = 0.4
+          M = 2
+         EG = 1.11
+        XTI = 3
+         KF = 0
+         AF = 1
+         FC = 0.9
+         BV = 165
+        IBV = 1E-6
+ )
.ENDS
*$
*
* XTI, EG HAVE NOT BEEN EXTRACTED AND ARE SET TO DEFAULT VALUES.
*
* MEASURED TRR = 5.67NS, SIMULATED TRR = 5.61NS.
*
*
* RAD: 2E13
* TYPE: NEUTRON
* TEMP: 27
*
*
.SUBCKT D1N4148/27C/RAD2 99   2
D1   99    2 DFOR
C1    2   99 1.30456E-12
.MODEL DFOR  D          (
+         IS = 6.20257E-9
+         RS = 0.7388511
+          N = 1.805135
+         TT = 7.3E-9
+        CJO = 3.05464E-13
+         VJ = 0.4
+          M = 1.824741
+         EG = 1.11
+        XTI = 3
+         KF = 0
+         AF = 1
+         FC = 0.8991
+         BV = 163
+        IBV = 5E-6
+ )
.ENDS
*$
*
* MEASURED TRR = 3.4NS, SIMULATED TRR = 1.521NS.
*
* RAD: 2E14
* TYPE: NEUTRON
* TEMP= 27
*
.SUBCKT D1N4148/27C/RAD3 99   2
D1   99    2 DFOR
C1    2   99 1.34841E-12
.MODEL DFOR  D     (
+         IS = 7.51054E-9
+         RS = 1.672287
+          N = 1.864477
+         TT = 1E-9
+        CJO = 1.652E-13
+         VJ = 0.3619
+          M = 1.721
+         EG = 1.11
+        XTI = 3
+         KF = 0
+         AF = 1
+         FC = 0.85
+         BV = 148
+        IBV = 2E-6
+ )
.ENDS
*$
*
* BV, IBV, XTI, EG HAVE NOT BEEN EXTRACTED AND ARE SET TO DEFAULT VALUES.
*
* MEASURED TRR = 3.379NS, SIMULATED TRR = 3.062NS.
*
* RAD: PRERAD
* TEMP= -55
.MODEL D1N4148/-55C   D      (
+         IS = 1.26351E-8
+         RS = 0.7600063
+          N = 1.953465
+         TT = 2.424E-9
+        CJO = 1.72434E-12
+         VJ = 0.3026211
+          M = 0.2
+         EG = 1.11
+        XTI = 3
+         KF = 0
+         AF = 1
+         FC = 0.998001
+         BV = 1E5
+        IBV = 1.0E-10
+ )
*$
*
* GENERIC FUNCTIONAL EQUIVALENT = 1N4148
* TYPE: DIODE
* SUBTYPE: SWITCHING
* THIS FILE CONTAINS 1 MODEL THAT CAN BE USED AS A TEMPERATURE TRACKING
* MODEL FROM -55 TO 125 DEG C.
* THIS MODEL CAN BE USED FOR ALL OF THE FOLLOWING DEVICES:
* 1N4148
* 1N4148-1
* 1N4148-1JTXV
* THE ROOM TEMPERATURE PRE-RAD PARAMETER SET SIMULATES NEARLY
* IDENTICALLY TO THE  -55 AND THE 125 DEG C WHEN .TEMP IS USED.  THIS
* PARAMETER SET CAN BE USED  AT ALL TEMPERATURES BETWEEN -55 AND 125 DEG
* C.
* PARAMETER MODELS EXTRACTED FROM MEASURED DATA.
*
* MEASURED TRR = 4.681NS, SIMULATED TRR = 6.544NS.
*
*** CAUTION: THE MEASURED TRR AND THE PSPICE CIRCUIT SIMULATED TRR ARE
* DIFFERENT.  THIS COULD POTENTIALLY LEAD TO ERRORS IN CKT. SIMULATIONS IF
* USED AS A RECTIFIER OR SWITCHING DIODE
*
* BV, IBV, XTI, EG HAVE NOT BEEN EXTRACTED AND ARE SET TO DEFAULT VALUES.
*
* RAD: PRERAD
* TEMP= 27
.MODEL D1N4148/TEMP   D      (
+         IS = 1.27106E-8
+         RS = 0.7546332
+          N = 1.9215823
+         TT = 3.679E-9
+        CJO = 1.72434E-12
+         VJ = 0.3026211
+          M = 0.2
+         EG = 1.11
+        XTI = 3
+         KF = 0
+         AF = 1
+         FC = 0.998001
+         BV = 1E5
+        IBV = 1.0E-10
+ )
*$
.model D1N4149  D(Is=2.682n N=1.836 Rs=.5664 Ikf=44.17m Xti=3 Eg=1.11 Cjo=2p
+               M=.3333 Vj=.5 Fc=.5 Isr=1.565n Nr=2 Bv=100 Ibv=100u Tt=11.54n)
*$
.model D1N4150  D(Is=740.5p N=1.65 Rs=.5949 Ikf=8.039 Xti=3 Eg=1.11 Cjo=2.5p
+               M=.3333 Vj=.75 Fc=.5 Isr=24.36n Nr=2 Bv=75.37 Ibv=100u
+               Tt=5.771n)
*$
.model D1N4151  D(Is=2.2n N=1.768 Rs=.5927 Ikf=8.512m Xti=3 Eg=1.11 Cjo=1.725p
+               M=88.82m Vj=.5 Fc=.5 Isr=7.832n Nr=2 Bv=75 Ibv=5u Tt=5.771n)
*$
*
* D1N4152 D model
* created using Parts release 7.1 on 02/06/97 at 09:41
* Parts is a MicroSim product.
.MODEL D1N4152 D
+ IS=1.2554E-9
+ N=1.7783
+ RS=1.2124
+ IKF=19.158E-3
+ CJO=2.0000E-12
+ M=.3333
+ VJ=.75
+ ISR=14.138E-9
+ BV=40.375
+ IBV=10
+ TT=7.0382E-9
*$
*
.model D1N4153  D(Is=36.16E-18 N=1 Rs=.1 Ikf=0 Xti=3 Eg=1.11 Cjo=2p M=.3333
+               Vj=.75 Fc=.5 Isr=12.27n Nr=2 Bv=100 Ibv=100u Tt=5.771n)
*$
.model D1N4154  D(Is=153.4p N=1.487 Rs=.6329 Ikf=3.53m Xti=3 Eg=1.11 Cjo=2.251p
+               M=.1575 Vj=.5 Fc=.5 Isr=4.763n Nr=2 Bv=35 Ibv=5u Tt=5.771n)
*$
.model D1N4305  D(Is=55.48E-18 N=1 Rs=.1 Ikf=0 Xti=3 Eg=1.11 Cjo=2p M=.3333
+               Vj=.75 Fc=.5 Isr=24.54n Nr=2 Bv=75 Ibv=100u Tt=5.771n)
*$
* created using Parts release 7.1p on 08/26/96 at 14:38
.MODEL D1N4376 D
+ IS=857.8900E-12
+ N=1.88811
+ RS=2.53577
+ CJO=1.0000E-12
+ M=.3333
+ VJ=.75
+ ISR=40.817E-9
+ NR=6.32069
+ BV=20.375
+ IBV=10
+ TT=662.00E-12
*$
.model D1N4444  D(Is=26.66n N=2.062 Rs=.4266 Ikf=22.1 Xti=3 Eg=1.11 Cjo=2p
+               M=.3333 Vj=.75 Fc=.5 Isr=5.729n Nr=2 Bv=70 Ibv=100u Tt=10.1n)
*$
.model D1N4446  D(Is=1.071n N=1.698 Rs=.8383 Ikf=0 Xti=3 Eg=1.11 Cjo=4p M=.3333
+               Vj=.75 Fc=.5 Isr=2.441n Nr=2 Bv=100 Ibv=100u Tt=11.54n)
*$
.model D1N4447  D(Is=1.071n N=1.698 Rs=.8383 Ikf=0 Xti=3 Eg=1.11 Cjo=2p M=.3333
+               Vj=.5 Fc=.5 Isr=2.149n Nr=2 Bv=100 Ibv=100u Tt=11.54n)
*$
.model D1N4448  D(Is=2.681n N=1.835 Rs=.5142 Ikf=34.82m Xti=3 Eg=1.11 Cjo=4p
+               M=.3333 Vj=.5 Fc=.5 Isr=1.566n Nr=2 Bv=100 Ibv=100u Tt=11.54n)
*$
.model D1N4449  D(Is=2.018n N=1.791 Rs=.6887 Ikf=0 Xti=3 Eg=1.11 Cjo=2p M=.3333
+               Vj=.5 Fc=.5 Isr=1.806n Nr=2 Bv=100 Ibv=100u Tt=11.54n)
*$
.model D1N4454  D(Is=168.1E-21 N=1 Rs=.1 Ikf=0 Xti=3 Eg=1.11 Cjo=2p M=.3333
+               Vj=.75 Fc=.5 Isr=24.54n Nr=2 Bv=75 Ibv=100u Tt=5.771n)
*$
.model D1n4460  D(Is=84.5f N=1 Rs=.1 Ikf=0 Xti=3 Eg=1.11 Cjo=1n M=.3333 Vj=.75
+               Fc=.5 Isr=5.516u Nr=2 Bv=6.233 Ibv=.1658 Tt=144.3n)
*$
.model D1N4461  D(Is=84.5f N=1 Rs=.1 Ikf=0 Xti=3 Eg=1.11 Cjo=1n M=.3333 Vj=.75
+               Fc=.5 Isr=2.688u Nr=2 Bv=6.85 Ibv=.2913 Tt=144.3n)
*$
.model D1N4462  D(Is=84.5f N=1 Rs=.1 Ikf=0 Xti=3 Eg=1.11 Cjo=1n M=.3333 Vj=.75
+               Fc=.5 Isr=522.8n Nr=2 Bv=7.554 Ibv=.317 Tt=144.3n)
*$
.model D1n4463  D(Is=84.5f N=1 Rs=.1 Ikf=0 Xti=3 Eg=1.11 Cjo=1n M=.3333 Vj=.75
+               Fc=.5 Isr=254.8n Nr=2 Bv=8.255 Ibv=.2877 Tt=144.3n)
*$
.model D1N4464  D(Is=84.5f N=1 Rs=.1 Ikf=0 Xti=3 Eg=1.11 Cjo=1n M=.3333 Vj=.75
+               Fc=.5 Isr=148.3n Nr=2 Bv=9.152 Ibv=.2369 Tt=144.3n)
*$
.model D1n4465  D(Is=84.5f N=1 Rs=.1 Ikf=0 Xti=3 Eg=1.11 Cjo=950p M=.3333
+               Vj=.75 Fc=.5 Isr=132.3n Nr=2 Bv=10.05 Ibv=.2111 Tt=144.3n)
*$
.model D1n4466  D(Is=84.5f N=1 Rs=.1 Ikf=0 Xti=3 Eg=1.11 Cjo=950p M=.3333
+               Vj=.75 Fc=.5 Isr=128.5n Nr=2 Bv=11.05 Ibv=.1906 Tt=144.3n)
*$
.model D1n4467  D(Is=84.5f N=1 Rs=.1 Ikf=0 Xti=3 Eg=1.11 Cjo=930p M=.3333
+               Vj=.75 Fc=.5 Isr=83.39n Nr=2 Bv=12.05 Ibv=.1785 Tt=144.3n)
*$
.model D1n4468  D(Is=84.5f N=1 Rs=.1 Ikf=0 Xti=3 Eg=1.11 Cjo=920p M=.3333
+               Vj=.75 Fc=.5 Isr=20.34n Nr=2 Bv=13.06 Ibv=.1723 Tt=144.3n)
*$
*
* RAD: PRE
* TEMP= 125
*
.SUBCKT D1N4468/125C  99   2
D1    2   99 DLEAK
R1    2   99 1E12
V2    5   99 12.825
D2    2   5 DBLOCK
D3    99   2 DFOR
*
.MODEL DLEAK    D  (
+         IS = 1.743E-8
+         RS = 0.1102
+          N = 163.6
+         TT = 0
+        CJO = 0
+         VJ = 1
+          M = .5
+         EG = 1.11
+        XTI = 3
+         KF = 0
+         AF = 1
+         FC = .5
+         BV = 1E5
+        IBV = .001
+ )
*
.MODEL DBLOCK   D  (
+         IS = 9.599E-20
+         RS = 0.8671
+          N = 0.8097
+         TT = 0
+        CJO = 0
+         VJ = 1
+          M = .5
+         EG = 1.11
+        XTI = 3
+         KF = 0
+         AF = 1
+         FC = .5
+         BV = 1E5
+        IBV = .001
+ )
*
.MODEL DFOR     D  (
+         IS = 5.781E-14
+         RS = 0.0868
+          N = 1.115
+         TT = 5.50E-8
+        CJO = 2.835E-10
+         VJ = 0.2676
+          M = 0.3041
+         EG = 1.11
+        XTI = 3
+         KF = 0
+         AF = 1
+         FC = 0.5
+         BV = 1E5
+        IBV = .001
+ )
.ENDS
*$
*
* RAD: 5.39E14
* TYPE: NEUTRON
* TEMP= 125
.SUBCKT D1N4468/125C/RAD  99   2
D1    2   99 DLEAK
R1    2   99 1E12
V2    5   99 13.01
D2    2   5 DBLOCK
D3    99   2 DFOR
*
.MODEL DLEAK    D  (
+         IS = 1E-6
+         RS = 3.851E-3