* Library of European Bipolar Transistor Models
*
*  Copyright OrCAD, Inc. 1998 All Rights Reserved.
*
* $Revision:   1.5  $
* $Author:   RPEREZ  $
* $Date:   17 Apr 1998 14:02:02  $
*
*
* ----------------------------------------------------------------------------
* The parameters in this model library were derived from the data sheets for
* each part.  Each part was characterized using Parts.
*
*
*------------------------------------------------------------------------------
* Small-Signal Bipolar Transistors
* contents: SIEMENS Discrete Semiconductors for Surface Mounting 87/88
* contents: PHILIPS Semiconductors Book S3 1988
* note	: hoe, C and Ts may be estimated by given or conventional limits.
*$
.model BC107A   NPN(Is=7.049f Xti=3 Eg=1.11 Vaf=116.3 Bf=375.5 Ise=7.049f
+               Ne=1.281 Ikf=4.589 Nk=.5 Xtb=1.5 Br=2.611 Isc=121.7p Nc=1.865
+               Ikr=5.313 Rc=1.464 Cjc=5.38p Mjc=.329 Vjc=.6218 Fc=.5 Cje=11.5p
+               Mje=.2717 Vje=.5 Tr=10n Tf=451p Itf=6.194 Xtf=17.43 Vtf=10)
*		PHILIPS		pid=bc107a	case=TO18
*		91-08-02 dsq
*$
.model BC107B   NPN(Is=7.049f Xti=3 Eg=1.11 Vaf=59.59 Bf=381.7 Ise=59.74f
+               Ne=1.522 Ikf=3.289 Nk=.5 Xtb=1.5 Br=2.359 Isc=192.9p Nc=1.954
+               Ikr=7.807 Rc=1.427 Cjc=5.38p Mjc=.329 Vjc=.6218 Fc=.5 Cje=11.5p
+               Mje=.2718 Vje=.5 Tr=10n Tf=438p Itf=5.716 Xtf=14.51 Vtf=10)
*		PHILIPS		pid=bc107b	case=TO18
*		91-08-02 dsq
*$
.model BC108A   NPN(Is=7.049f Xti=3 Eg=1.11 Vaf=116.3 Bf=375.5 Ise=7.049f
+               Ne=1.281 Ikf=4.589 Nk=.5 Xtb=1.5 Br=2.611 Isc=121.7p Nc=1.865
+               Ikr=5.313 Rc=1.464 Cjc=5.38p Mjc=.329 Vjc=.6218 Fc=.5 Cje=11.5p
+               Mje=.2717 Vje=.5 Tr=10n Tf=451p Itf=6.194 Xtf=17.43 Vtf=10)
*		PHILIPS		pid=bc107a	case=TO18
*		91-08-02 dsq
*$
.model BC108B   NPN(Is=7.049f Xti=3 Eg=1.11 Vaf=59.59 Bf=381.7 Ise=59.74f
+               Ne=1.522 Ikf=3.289 Nk=.5 Xtb=1.5 Br=2.359 Isc=192.9p Nc=1.954
+               Ikr=7.807 Rc=1.427 Cjc=5.38p Mjc=.329 Vjc=.6218 Fc=.5 Cje=11.5p
+               Mje=.2718 Vje=.5 Tr=10n Tf=438p Itf=5.716 Xtf=14.51 Vtf=10)
*		PHILIPS		pid=bc107b	case=TO18
*		91-08-02 dsq
*$
.model BC108C   NPN(Is=7.049f Xti=3 Eg=1.11 Vaf=28.14 Bf=677 Ise=7.049f Ne=1.38
+               Ikf=96.23 Nk=.5 Xtb=1.5 Br=2.209 Isc=250.3p Nc=2.002 Ikr=10.73
+               Rc=1.433 Cjc=5.38p Mjc=.329 Vjc=.6218 Fc=.5 Cje=11.5p Mje=.2717
+               Vje=.5 Tr=10n Tf=437.8p Itf=3.097 Xtf=12.85 Vtf=10)
*		PHILIPS		pid=bc108c	case=TO18
*		91-08-02 dsq
*$
.model BC109B   NPN(Is=7.049f Xti=3 Eg=1.11 Vaf=59.59 Bf=381.7 Ise=59.74f
+               Ne=1.522 Ikf=3.289 Nk=.5 Xtb=1.5 Br=2.359 Isc=192.9p Nc=1.954
+               Ikr=7.807 Rc=1.427 Cjc=5.38p Mjc=.329 Vjc=.6218 Fc=.5 Cje=11.5p
+               Mje=.2718 Vje=.5 Tr=10n Tf=438p Itf=5.716 Xtf=14.51 Vtf=10)
*		PHILIPS		pid=bc107b	case=TO18
*		91-08-02 dsq
*$
.model BC109C   NPN(Is=7.049f Xti=3 Eg=1.11 Vaf=28.14 Bf=677 Ise=7.049f Ne=1.38
+               Ikf=96.23 Nk=.5 Xtb=1.5 Br=2.209 Isc=250.3p Nc=2.002 Ikr=10.73
+               Rc=1.433 Cjc=5.38p Mjc=.329 Vjc=.6218 Fc=.5 Cje=11.5p Mje=.2717
+               Vje=.5 Tr=10n Tf=437.8p Itf=3.097 Xtf=12.85 Vtf=10)
*		PHILIPS		pid=bc108c	case=TO18
*		91-08-02 dsq
*$
.model BC177    PNP(Is=336.7f Xti=3 Eg=1.11 Vaf=55.46 Bf=154.4 Ise=412.1f
+               Ne=1.429 Ikf=.2994 Nk=.7028 Xtb=1.5 Br=3.99 Isc=1.03n Nc=1.958
+               Ikr=9.726 Rc=1.833 Cjc=11p Mjc=.2223 Vjc=.5 Fc=.5 Cje=33p
+               Mje=.3333 Vje=.5 Tr=10n Tf=847.7p Itf=2.198 Xtf=23.26 Vtf=10)
*		PHILIPS		pid=bc177	case=TO18
*		91-07-31 dsq
*$
.model BC178A   PNP(Is=336.7f Xti=3 Eg=1.11 Vaf=44.61 Bf=187 Ise=336.8f
+               Ne=1.459 Ikf=.2059 Nk=.5081 Xtb=1.5 Br=4.068 Isc=1.121n
+               Nc=1.953 Ikr=10.05 Rc=1.86 Cjc=11p Mjc=.2223 Vjc=.5 Fc=.5
+               Cje=33p Mje=.3333 Vje=.5 Tr=10n Tf=845.5p Itf=1.701 Xtf=19.04
+               Vtf=10)
*		PHILIPS		pid=bc178a	case=TO18
*		91-08-02 dsq
*$
.model BC178B   PNP(Is=336.7f Xti=3 Eg=1.11 Vaf=30.75 Bf=271.9 Ise=2.821p
+               Ne=1.925 Ikf=.2462 Nk=.5416 Xtb=1.5 Br=3.009 Isc=1.753n
+               Nc=2.075 Ikr=8.143 Rc=1.803 Cjc=11p Mjc=.2223 Vjc=.5 Fc=.5
+               Cje=33p Mje=.3333 Vje=.5 Tr=10n Tf=846p Itf=1.546 Xtf=18.27
+               Vtf=10)
*		PHILIPS 	pid=bc178b	case=TO18
*		91-08-02 dsq
*$
.model BC179A   PNP(Is=336.7f Xti=3 Eg=1.11 Vaf=44.61 Bf=187 Ise=336.8f
+               Ne=1.459 Ikf=.2059 Nk=.5081 Xtb=1.5 Br=4.068 Isc=1.121n
+               Nc=1.953 Ikr=10.05 Rc=1.86 Cjc=11p Mjc=.2223 Vjc=.5 Fc=.5
+               Cje=33p Mje=.3333 Vje=.5 Tr=10n Tf=845.5p Itf=1.701 Xtf=19.04
+               Vtf=10)
*		PHILIPS		pid=bc178a	case=TO18
*		91-08-02 dsq
*$
.model BC179B   PNP(Is=336.7f Xti=3 Eg=1.11 Vaf=30.75 Bf=271.9 Ise=2.821p
+               Ne=1.925 Ikf=.2462 Nk=.5416 Xtb=1.5 Br=3.009 Isc=1.753n
+               Nc=2.075 Ikr=8.143 Rc=1.803 Cjc=11p Mjc=.2223 Vjc=.5 Fc=.5
+               Cje=33p Mje=.3333 Vje=.5 Tr=10n Tf=846p Itf=1.546 Xtf=18.27
+               Vtf=10)
*		PHILIPS 	pid=bc178b	case=TO18
*		91-08-02 dsq
*$
.model BC368    NPN(Is=14.06f Xti=3 Eg=1.11 Vaf=100 Bf=187.6 Ise=137.2f
+               Ne=1.468 Ikf=4.103 Nk=.5507 Xtb=1.5 Br=4.541 Isc=44.13f
+               Nc=1.471 Ikr=1.701 Rc=91m Cjc=52.24p Mjc=.3333 Vjc=.5 Fc=.5
+               Cje=156p Mje=.3333 Vje=.5 Tr=10n Tf=964.8p Itf=595.3 Xtf=1.001K
+               Vtf=10)
*		PHILIPS		pid=bc368	case=TO92
*		91-08-02 dsq
*$
.model BC369    PNP(Is=13.01f Xti=3 Eg=1.11 Vaf=100 Bf=191.1 Ise=105f Ne=1.695
+               Ikf=2.253 Nk=.5176 Xtb=1.5 Br=9.046MEG Isc=853.3f Nc=9.905
+               Ikr=116.1 Rc=.1694 Cjc=87.73p Mjc=.3333 Vjc=.5 Fc=.5 Cje=261p
+               Mje=.3333 Vje=.5 Tr=10n Tf=998.5p Itf=14.84 Xtf=15.37 Vtf=10)
*		PHILIPS		pid=bc369	case=TO92
*		91-07-31 dsq
*$
.model BC546A   NPN(Is=7.049f Xti=3 Eg=1.11 Vaf=127.9 Bf=253 Ise=96.26f
+               Ne=1.556 Ikf=77.05m Nk=.5305 Xtb=1.5 Br=1 Isc=130.8f Nc=1.602
+               Ikr=3.321 Rc=.8766 Cjc=5.25p Mjc=.3147 Vjc=.5697 Fc=.5
+               Cje=11.5p Mje=.6715 Vje=.5 Tr=10n Tf=409.5p Itf=1.994 Xtf=40.12
+               Vtf=10)
*		PHILIPS		pid=bc546a	case=TO92
*		91-07-31 dsq
*$
.model BC546B   NPN(Is=7.049f Xti=3 Eg=1.11 Vaf=62.79 Bf=374.6 Ise=68f Ne=1.576
+               Ikf=81.57m Nk=.4767 Xtb=1.5 Br=1 Isc=12.4f Nc=1.835 Ikr=3.924
+               Rc=.9747 Cjc=5.25p Mjc=.3147 Vjc=.5697 Fc=.5 Cje=11.5p
+               Mje=.6715 Vje=.5 Tr=10n Tf=410.2p Itf=1.491 Xtf=40.06 Vtf=10)
*		PHILIPS		pid=bc546b	case=TO92
*		91-07-31 dsq
*$
.model BC547A   NPN(Is=7.049f Xti=3 Eg=1.11 Vaf=127.9 Bf=253 Ise=96.26f
+               Ne=1.556 Ikf=77.05m Nk=.5305 Xtb=1.5 Br=1 Isc=130.8f Nc=1.602
+               Ikr=3.321 Rc=.8766 Cjc=5.25p Mjc=.3147 Vjc=.5697 Fc=.5
+               Cje=11.5p Mje=.6715 Vje=.5 Tr=10n Tf=409.5p Itf=1.994 Xtf=40.12
+               Vtf=10)
*		PHILIPS		pid=bc546a	case=TO92
*		91-07-31 dsq
*$
.model BC547B   NPN(Is=7.049f Xti=3 Eg=1.11 Vaf=62.79 Bf=374.6 Ise=68f Ne=1.576
+               Ikf=81.57m Nk=.4767 Xtb=1.5 Br=1 Isc=12.4f Nc=1.835 Ikr=3.924
+               Rc=.9747 Cjc=5.25p Mjc=.3147 Vjc=.5697 Fc=.5 Cje=11.5p
+               Mje=.6715 Vje=.5 Tr=10n Tf=410.2p Itf=1.491 Xtf=40.06 Vtf=10)
*		PHILIPS		pid=bc546b	case=TO92
*		91-07-31 dsq
*$
.model BC547C   NPN(Is=7.049f Xti=3 Eg=1.11 Vaf=24.76 Bf=543.1 Ise=78.17f
+               Ne=1.679 Ikf=94.96m Nk=.5381 Xtb=1.5 Br=1 Isc=27.51f Nc=1.775
+               Ikr=3.321 Rc=.9706 Cjc=5.25p Mjc=.3147 Vjc=.5697 Fc=.5
+               Cje=11.5p Mje=.6715 Vje=.5 Tr=10n Tf=410.7p Itf=1.12 Xtf=26.19
+               Vtf=10)
*		PHILIPS		pid=bc547c	case=TO92
*		91-07-31 dsq
*$
.model BC548A   NPN(Is=7.049f Xti=3 Eg=1.11 Vaf=127.9 Bf=253 Ise=96.26f
+               Ne=1.556 Ikf=77.05m Nk=.5305 Xtb=1.5 Br=1 Isc=130.8f Nc=1.602
+               Ikr=3.321 Rc=.8766 Cjc=5.25p Mjc=.3147 Vjc=.5697 Fc=.5
+               Cje=11.5p Mje=.6715 Vje=.5 Tr=10n Tf=409.5p Itf=1.994 Xtf=40.12
+               Vtf=10)
*		PHILIPS		pid=bc546a	case=TO92
*		91-07-31 dsq
*$
.model BC548B   NPN(Is=7.049f Xti=3 Eg=1.11 Vaf=62.79 Bf=374.6 Ise=68f Ne=1.576
+               Ikf=81.57m Nk=.4767 Xtb=1.5 Br=1 Isc=12.4f Nc=1.835 Ikr=3.924
+               Rc=.9747 Cjc=5.25p Mjc=.3147 Vjc=.5697 Fc=.5 Cje=11.5p
+               Mje=.6715 Vje=.5 Tr=10n Tf=410.2p Itf=1.491 Xtf=40.06 Vtf=10)
*		PHILIPS		pid=bc546b	case=TO92
*		91-07-31 dsq
*$
.model BC548C   NPN(Is=7.049f Xti=3 Eg=1.11 Vaf=24.76 Bf=543.1 Ise=78.17f
+               Ne=1.679 Ikf=94.96m Nk=.5381 Xtb=1.5 Br=1 Isc=27.51f Nc=1.775
+               Ikr=3.321 Rc=.9706 Cjc=5.25p Mjc=.3147 Vjc=.5697 Fc=.5
+               Cje=11.5p Mje=.6715 Vje=.5 Tr=10n Tf=410.7p Itf=1.12 Xtf=26.19
+               Vtf=10)
*		PHILIPS		pid=bc547c	case=TO92
*		91-07-31 dsq
*$
.model BC549B   NPN(Is=7.049f Xti=3 Eg=1.11 Vaf=59.93 Bf=375.6 Ise=56.03f
+               Ne=1.553 Ikf=87.07m Nk=.4901 Xtb=1.5 Br=2.886 Isc=7.371p
+               Nc=1.508 Ikr=5.426 Rc=1.175 Cjc=5.5p Mjc=.3132 Vjc=.4924 Fc=.5
+               Cje=11.5p Mje=.6558 Vje=.5 Tr=10n Tf=417.3p Itf=1.512 Xtf=39.51
+               Vtf=10)
*		PHILIPS		pid=bc549b	case=TO92
*		91-07-31 dsq
*$
.model BC549C   NPN(Is=7.049f Xti=3 Eg=1.11 Vaf=23.89 Bf=493.2 Ise=99.2f
+               Ne=1.829 Ikf=.1542 Nk=.6339 Xtb=1.5 Br=2.886 Isc=7.371p
+               Nc=1.508 Ikr=5.426 Rc=1.175 Cjc=5.5p Mjc=.3132 Vjc=.4924 Fc=.5
+               Cje=11.5p Mje=.6558 Vje=.5 Tr=10n Tf=420.3p Itf=1.374 Xtf=39.42
+               Vtf=10)
*		PHILIPS		pid=bc549c	case=TO92
*		91-07-31 dsq
*$
.model BC550B   NPN(Is=7.049f Xti=3 Eg=1.11 Vaf=59.93 Bf=375.6 Ise=56.03f
+               Ne=1.553 Ikf=87.07m Nk=.4901 Xtb=1.5 Br=2.886 Isc=7.371p
+               Nc=1.508 Ikr=5.426 Rc=1.175 Cjc=5.5p Mjc=.3132 Vjc=.4924 Fc=.5
+               Cje=11.5p Mje=.6558 Vje=.5 Tr=10n Tf=417.3p Itf=1.512 Xtf=39.51
+               Vtf=10)
*		PHILIPS		pid=bc549b	case=TO92
*		91-07-31 dsq
*$
.model BC550C   NPN(Is=7.049f Xti=3 Eg=1.11 Vaf=23.89 Bf=493.2 Ise=99.2f
+               Ne=1.829 Ikf=.1542 Nk=.6339 Xtb=1.5 Br=2.886 Isc=7.371p
+               Nc=1.508 Ikr=5.426 Rc=1.175 Cjc=5.5p Mjc=.3132 Vjc=.4924 Fc=.5
+               Cje=11.5p Mje=.6558 Vje=.5 Tr=10n Tf=420.3p Itf=1.374 Xtf=39.42
+               Vtf=10)
*		PHILIPS		pid=bc549c	case=TO92
*		91-07-31 dsq
*$
.model BC556A   PNP(Is=1.02f Xti=3 Eg=1.11 Vaf=73.79 Bf=174.7 Ise=10.73f
+               Ne=1.644 Ikf=.1023 Nk=.5033 Xtb=1.5 Br=4.432 Isc=14.74f
+               Nc=1.296 Ikr=2.237 Rc=1.039 Cjc=9.81p Mjc=.332 Vjc=.4865 Fc=.5
+               Cje=30p Mje=.3333 Vje=.5 Tr=10n Tf=830.3p Itf=.8981 Xtf=10.32
+               Vtf=10)
*		PHILIPS		pid=bc556a	case=TO92
*		91-08-09 dsq
*$
.model BC556B   PNP(Is=1.02f Xti=3 Eg=1.11 Vaf=52.31 Bf=306.5 Ise=10.27f
+               Ne=1.764 Ikf=91.85m Nk=.5351 Xtb=1.5 Br=7.437 Isc=1.02f Nc=1.63
+               Ikr=1.7 Rc=1.162 Cjc=9.81p Mjc=.332 Vjc=.4865 Fc=.5 Cje=30p
+               Mje=.3333 Vje=.5 Tr=10n Tf=611.6p Itf=1.37 Xtf=25.92 Vtf=10)
*		PHILIPS		pid=bc556b	case=TO92
*		91-08-02 dsq
*$
.model BC557A   PNP(Is=1.02f Xti=3 Eg=1.11 Vaf=73.79 Bf=174.7 Ise=10.73f
+               Ne=1.644 Ikf=.1023 Nk=.5033 Xtb=1.5 Br=4.432 Isc=14.74f
+               Nc=1.296 Ikr=2.237 Rc=1.039 Cjc=9.81p Mjc=.332 Vjc=.4865 Fc=.5
+               Cje=30p Mje=.3333 Vje=.5 Tr=10n Tf=830.3p Itf=.8981 Xtf=10.32
+               Vtf=10)
*		PHILIPS		pid=bc556a	case=TO92
*		91-08-09 dsq
*$
.model BC557B   PNP(Is=1.02f Xti=3 Eg=1.11 Vaf=52.31 Bf=306.5 Ise=10.27f
+               Ne=1.764 Ikf=91.85m Nk=.5351 Xtb=1.5 Br=6.48 Isc=1.472f
+               Nc=1.294 Ikr=.5584 Rc=1.086 Cjc=9.81p Mjc=.332 Vjc=.4865 Fc=.5
+               Cje=30p Mje=.3333 Vje=.5 Tr=10n Tf=611.6p Itf=1.373 Xtf=26.05
+               Vtf=10)
*		PHILIPS		pid=bc556b	case=TO92
*		91-08-02 dsq
*$
.model BC557C   PNP(Is=1.02f Xti=3 Eg=1.11 Vaf=30.52 Bf=416.3 Ise=14.67f
+               Ne=1.854 Ikf=.2088 Nk=.8219 Xtb=1.5 Br=9.102 Isc=4.1f Nc=3.982
+               Ikr=19.25m Rc=.9373 Cjc=9.81p Mjc=.332 Vjc=.4865 Fc=.5 Cje=30p
+               Mje=.3333 Vje=.5 Tr=10n Tf=516.2p Itf=1.701 Xtf=35.24 Vtf=10)
*		PHILIPS		pid=bc557c	case=TO92
*		91-08-02 dsq
*$
.model BC558A   PNP(Is=1.02f Xti=3 Eg=1.11 Vaf=73.79 Bf=174.7 Ise=10.73f
+               Ne=1.644 Ikf=.1023 Nk=.5033 Xtb=1.5 Br=4.432 Isc=14.74f
+               Nc=1.296 Ikr=2.237 Rc=1.039 Cjc=9.81p Mjc=.332 Vjc=.4865 Fc=.5
+               Cje=30p Mje=.3333 Vje=.5 Tr=10n Tf=830.3p Itf=.8981 Xtf=10.32
+               Vtf=10)
*		PHILIPS		pid=bc556a	case=TO92
*		91-08-09 dsq
*$
.model BC558B   PNP(Is=1.02f Xti=3 Eg=1.11 Vaf=52.31 Bf=306.5 Ise=10.27f
+               Ne=1.764 Ikf=91.85m Nk=.5351 Xtb=1.5 Br=6.48 Isc=1.472f
+               Nc=1.294 Ikr=.5584 Rc=1.086 Cjc=9.81p Mjc=.332 Vjc=.4865 Fc=.5
+               Cje=30p Mje=.3333 Vje=.5 Tr=10n Tf=611.6p Itf=1.373 Xtf=26.05
+               Vtf=10)
*		PHILIPS		pid=bc556b	case=TO92
*		91-08-02 dsq
*$
.model BC558C   PNP(Is=1.02f Xti=3 Eg=1.11 Vaf=30.52 Bf=416.3 Ise=14.67f
+               Ne=1.854 Ikf=.2088 Nk=.8219 Xtb=1.5 Br=9.102 Isc=4.1f Nc=3.982
+               Ikr=19.25m Rc=.9373 Cjc=9.81p Mjc=.332 Vjc=.4865 Fc=.5 Cje=30p
+               Mje=.3333 Vje=.5 Tr=10n Tf=516.2p Itf=1.701 Xtf=35.24 Vtf=10)
*		PHILIPS		pid=bc557c	case=TO92
*		91-08-02 dsq
*$
.model BC559A   PNP(Is=1.02f Xti=3 Eg=1.11 Vaf=74.76 Bf=175.1 Ise=10.26f
+               Ne=1.641 Ikf=88.84m Nk=.4971 Xtb=1.5 Br=4.329 Isc=71.92f
+               Nc=1.401 Ikr=9.634 Rc=1.071 Cjc=9.81p Mjc=.332 Vjc=.4865 Fc=.5
+               Cje=30p Mje=.3333 Vje=.5 Tr=10n Tf=822.7p Itf=3.991 Xtf=174.7
+               Vtf=10)
*		PHILIPS		pid=bc559a	case=TO92
*		91-07-31 dsq
*$
.model BC559B   PNP(Is=1.02f Xti=3 Eg=1.11 Vaf=51.26 Bf=289.6 Ise=9.846f
+               Ne=1.845 Ikf=.1026 Nk=.5413 Xtb=1.5 Br=6.124 Isc=1.113f Nc=1.97
+               Ikr=.2035 Rc=1.078 Cjc=9.81p Mjc=.332 Vjc=.4865 Fc=.5 Cje=30p
+               Mje=.3333 Vje=.5 Tr=10n Tf=612.4p Itf=1.287 Xtf=25.55 Vtf=10)
*		PHIILIPS	pid=bc559b	case=TO92
*		91-08-02 dsq
*$
.model BC559C   PNP(Is=1.02f Xti=3 Eg=1.11 Vaf=34.62 Bf=401.6 Ise=38.26p
+               Ne=5.635 Ikf=74.73m Nk=.512 Xtb=1.5 Br=9.011 Isc=1.517f
+               Nc=1.831 Ikr=.1469 Rc=1.151 Cjc=9.81p Mjc=.332 Vjc=.4865 Fc=.5
+               Cje=30p Mje=.3333 Vje=.5 Tr=10n Tf=524p Itf=.9847 Xtf=17.71
+               Vtf=10)
*		PHILIPS		pid=bc559c	case=TO92
*		91-08-02 dsq
*$
.model BC560A   PNP(Is=1.02f Xti=3 Eg=1.11 Vaf=74.76 Bf=175.1 Ise=10.26f
+               Ne=1.641 Ikf=88.84m Nk=.4971 Xtb=1.5 Br=4.329 Isc=71.92f
+               Nc=1.401 Ikr=9.634 Rc=1.071 Cjc=9.81p Mjc=.332 Vjc=.4865 Fc=.5
+               Cje=30p Mje=.3333 Vje=.5 Tr=10n Tf=822.7p Itf=3.991 Xtf=174.7
+               Vtf=10)
*		PHILIPS		pid=bc559a	case=TO92
*		91-07-31 dsq
*$
.model BC560B   PNP(Is=1.02f Xti=3 Eg=1.11 Vaf=51.26 Bf=289.6 Ise=9.846f
+               Ne=1.845 Ikf=.1026 Nk=.5413 Xtb=1.5 Br=6.124 Isc=1.113f Nc=1.97
+               Ikr=.2035 Rc=1.078 Cjc=9.81p Mjc=.332 Vjc=.4865 Fc=.5 Cje=30p
+               Mje=.3333 Vje=.5 Tr=10n Tf=612.4p Itf=1.287 Xtf=25.55 Vtf=10)
*		PHIILIPS	pid=bc559b	case=TO92
*		91-08-02 dsq
*$
.model BC560C   PNP(Is=1.02f Xti=3 Eg=1.11 Vaf=34.62 Bf=401.6 Ise=38.26p
+               Ne=5.635 Ikf=74.73m Nk=.512 Xtb=1.5 Br=9.011 Isc=1.517f
+               Nc=1.831 Ikr=.1469 Rc=1.151 Cjc=9.81p Mjc=.332 Vjc=.4865 Fc=.5
+               Cje=30p Mje=.3333 Vje=.5 Tr=10n Tf=524p Itf=.9847 Xtf=17.71
+               Vtf=10)
*		PHILIPS		pid=bc559c	case=TO92
*		91-08-02 dsq
*$
.model BC807-16 PNP(Is=32.53f Xti=3 Eg=1.11 Vaf=100 Bf=209 Ise=318.3f Ne=1.542
+               Ikf=.6049 Nk=.6086 Xtb=1.5 Br=6.501 Isc=179.5f Nc=1.832
+               Ikr=.1402 Rc=.4026 Cjc=24.29p Mjc=.3333 Vjc=.5 Fc=.5 Cje=71.14p
+               Mje=.3333 Vje=.5 Tr=10n Tf=703p Itf=13.36 Xtf=1.289K Vtf=10)
*		SIEMENS		pid=bc807-16	case=SOT23
*		91-08-21 dsq
*$
.model BC807-25 PNP(Is=32.53f Xti=3 Eg=1.11 Vaf=100 Bf=340 Ise=288.9f Ne=1.568
+               Ikf=.4118 Nk=.5241 Xtb=1.5 Br=6.333 Isc=262.4f Nc=1.87
+               Ikr=32.84m Rc=.3998 Cjc=24.29p Mjc=.3333 Vjc=.5 Fc=.5
+               Cje=71.14p Mje=.3333 Vje=.5 Tr=10n Tf=704.1p Itf=14.26
+               Xtf=1.332K Vtf=10)
*		SIEMENS		pid=bc807-25	case=SOT23
*		91-08-21 dsq
*$
.model BC807-40 PNP(Is=32.53f Xti=3 Eg=1.11 Vaf=100 Bf=460.8 Ise=301.2f
+               Ne=1.615 Ikf=.4967 Nk=.5594 Xtb=1.5 Br=6.87 Isc=283.2f Nc=1.97
+               Ikr=9.135m Rc=.3759 Cjc=24.29p Mjc=.3333 Vjc=.5 Fc=.5
+               Cje=71.14p Mje=.3333 Vje=.5 Tr=10n Tf=704.3p Itf=13.89
+               Xtf=1.333K Vtf=10)
*		SIEMENS		pid=bc807-40	case=SOT23
*		91-08-21 dsq
*$
.model BC808-16 PNP(Is=32.53f Xti=3 Eg=1.11 Vaf=100 Bf=209 Ise=318.3f Ne=1.542
+               Ikf=.6049 Nk=.6086 Xtb=1.5 Br=6.501 Isc=179.5f Nc=1.832
+               Ikr=.1402 Rc=.4026 Cjc=24.29p Mjc=.3333 Vjc=.5 Fc=.5 Cje=71.14p
+               Mje=.3333 Vje=.5 Tr=10n Tf=703p Itf=13.36 Xtf=1.289K Vtf=10)
*		SIEMENS		pid=bc807-16	case=SOT23
*		91-08-21 dsq
*$
.model BC808-25 PNP(Is=32.53f Xti=3 Eg=1.11 Vaf=100 Bf=340 Ise=288.9f Ne=1.568
+               Ikf=.4118 Nk=.5241 Xtb=1.5 Br=6.333 Isc=262.4f Nc=1.87
+               Ikr=32.84m Rc=.3998 Cjc=24.29p Mjc=.3333 Vjc=.5 Fc=.5
+               Cje=71.14p Mje=.3333 Vje=.5 Tr=10n Tf=704.1p Itf=14.26
+               Xtf=1.332K Vtf=10)
*		SIEMENS		pid=bc807-25	case=SOT23
*		91-08-21 dsq
*$
.model BC808-40 PNP(Is=32.53f Xti=3 Eg=1.11 Vaf=100 Bf=460.8 Ise=301.2f
+               Ne=1.615 Ikf=.4967 Nk=.5594 Xtb=1.5 Br=6.87 Isc=283.2f Nc=1.97
+               Ikr=9.135m Rc=.3759 Cjc=24.29p Mjc=.3333 Vjc=.5 Fc=.5
+               Cje=71.14p Mje=.3333 Vje=.5 Tr=10n Tf=704.3p Itf=13.89
+               Xtf=1.333K Vtf=10)
*		SIEMENS		pid=bc807-40	case=SOT23
*		91-08-21 dsq
*$
.model BC817-16 NPN(Is=32.53f Xti=3 Eg=1.11 Vaf=100 Bf=190.4 Ise=299f Ne=1.583
+               Ikf=.7695 Nk=.5467 Xtb=1.5 Br=6.313 Isc=138f Nc=2.053 Ikr=.187
+               Rc=.4216 Cjc=24.29p Mjc=.3333 Vjc=.5 Fc=.5 Cje=71.14p Mje=.3333
+               Vje=.5 Tr=10n Tf=660.1p Itf=2.204 Xtf=66.65 Vtf=10)
*		SIEMENS 	pid=bc817-16	case=SOT23
*		91-08-21 dsq
*$
.model BC817-25 NPN(Is=32.53f Xti=3 Eg=1.11 Vaf=100 Bf=294.4 Ise=318.5f
+               Ne=1.642 Ikf=.8311 Nk=.5663 Xtb=1.5 Br=5.855 Isc=199.7f Nc=2.09
+               Ikr=.1075 Rc=.4196 Cjc=24.29p Mjc=.3333 Vjc=.5 Fc=.5 Cje=71.14p
+               Mje=.3333 Vje=.5 Tr=10n Tf=660.8p Itf=2.569 Xtf=88.29 Vtf=10)
*		SIEMENS		pid=bc817-25	case=SOT23
*		91-08-21 dsq
*$
.model BC817-40 NPN(Is=32.53f Xti=3 Eg=1.11 Vaf=100 Bf=407.8 Ise=333.4f
+               Ne=1.692 Ikf=.9448 Nk=.6041 Xtb=1.5 Br=6.39 Isc=268.8f Nc=2.125
+               Ikr=.1193 Rc=.4205 Cjc=24.29p Mjc=.3333 Vjc=.5 Fc=.5 Cje=71.14p
+               Mje=.3333 Vje=.5 Tr=10n Tf=662p Itf=3.238 Xtf=134.9 Vtf=10)
*		SIEMENS		pid=bc817-40	case=SOT23
*		91-08-21 dsq
*$
.model BC818-16 NPN(Is=32.53f Xti=3 Eg=1.11 Vaf=100 Bf=190.4 Ise=299f Ne=1.583
+               Ikf=.7695 Nk=.5467 Xtb=1.5 Br=6.313 Isc=138f Nc=2.053 Ikr=.187
+               Rc=.4216 Cjc=24.29p Mjc=.3333 Vjc=.5 Fc=.5 Cje=71.14p Mje=.3333
+               Vje=.5 Tr=10n Tf=660.1p Itf=2.204 Xtf=66.65 Vtf=10)
*		SIEMENS 	pid=bc817-16	case=SOT23
*		91-08-21 dsq
*$
.model BC818-25 NPN(Is=32.53f Xti=3 Eg=1.11 Vaf=100 Bf=294.4 Ise=318.5f
+               Ne=1.642 Ikf=.8311 Nk=.5663 Xtb=1.5 Br=5.855 Isc=199.7f Nc=2.09
+               Ikr=.1075 Rc=.4196 Cjc=24.29p Mjc=.3333 Vjc=.5 Fc=.5 Cje=71.14p
+               Mje=.3333 Vje=.5 Tr=10n Tf=660.8p Itf=2.569 Xtf=88.29 Vtf=10)
*		SIEMENS		pid=bc817-25	case=SOT23
*		91-08-21 dsq
*$
.model BC818-40 NPN(Is=32.53f Xti=3 Eg=1.11 Vaf=100 Bf=407.8 Ise=333.4f
+               Ne=1.692 Ikf=.9448 Nk=.6041 Xtb=1.5 Br=6.39 Isc=268.8f Nc=2.125
+               Ikr=.1193 Rc=.4205 Cjc=24.29p Mjc=.3333 Vjc=.5 Fc=.5 Cje=71.14p
+               Mje=.3333 Vje=.5 Tr=10n Tf=662p Itf=3.238 Xtf=134.9 Vtf=10)
*		SIEMENS		pid=bc817-40	case=SOT23
*		91-08-21 dsq
*$
.model BC846A   NPN(Is=7.049f Xti=3 Eg=1.11 Vaf=106.8 Bf=182.9 Ise=85.16f
+               Ne=1.709 Ikf=.1196 Nk=.5227 Xtb=1.5 Br=3.988 Isc=10.68f
+               Nc=2.417 Ikr=2.721 Rc=1.374 Cjc=7.287p Mjc=.3333 Vjc=.5 Fc=.5
+               Cje=9.485p Mje=.3333 Vje=.5 Tr=10n Tf=662.3p Itf=1.577
+               Xtf=14.27 Vtf=10)
*		SIEMENS		pid=bc846a	case=SOT23
*		91-08-21 dsq
*$
.model BC846B   NPN(Is=7.049f Xti=3 Eg=1.11 Vaf=62.37 Bf=279.1 Ise=59.16f
+               Ne=1.81 Ikf=.2201 Nk=.6305 Xtb=1.5 Br=3.816 Isc=16.17f Nc=2.394
+               Ikr=1.859 Rc=1.508 Cjc=7.287p Mjc=.3333 Vjc=.5 Fc=.5 Cje=9.485p
+               Mje=.3333 Vje=.5 Tr=10n Tf=664p Itf=4.664 Xtf=147 Vtf=10)
*		SIEMENS		pid=bc846b	case=SOT23
*		91-08-21 dsq
*$
.model BC847A   NPN(Is=7.049f Xti=3 Eg=1.11 Vaf=106.8 Bf=182.9 Ise=85.16f
+               Ne=1.709 Ikf=.1196 Nk=.5227 Xtb=1.5 Br=3.988 Isc=10.68f
+               Nc=2.417 Ikr=2.721 Rc=1.374 Cjc=7.287p Mjc=.3333 Vjc=.5 Fc=.5
+               Cje=9.485p Mje=.3333 Vje=.5 Tr=10n Tf=662.3p Itf=1.577
+               Xtf=14.27 Vtf=10)
*		SIEMENS		pid=bc846a	case=SOT23
*		91-08-21 dsq
*$
.model BC847B   NPN(Is=7.049f Xti=3 Eg=1.11 Vaf=62.37 Bf=279.1 Ise=59.16f
+               Ne=1.81 Ikf=.2201 Nk=.6305 Xtb=1.5 Br=3.816 Isc=16.17f Nc=2.394
+               Ikr=1.859 Rc=1.508 Cjc=7.287p Mjc=.3333 Vjc=.5 Fc=.5 Cje=9.485p
+               Mje=.3333 Vje=.5 Tr=10n Tf=664p Itf=4.664 Xtf=147 Vtf=10)
*		SIEMENS		pid=bc846b	case=SOT23
*		91-08-21 dsq
*$
.model BC847C   NPN(Is=7.049f Xti=3 Eg=1.11 Vaf=29.03 Bf=462.4 Ise=57.19f
+               Ne=2.002 Ikf=.1609 Nk=.6124 Xtb=1.5 Br=3.988 Isc=10.68f
+               Nc=2.417 Ikr=2.721 Rc=1.374 Cjc=7.287p Mjc=.3333 Vjc=.5 Fc=.5
+               Cje=9.485p Mje=.3333 Vje=.5 Tr=10n Tf=663.1p Itf=1.423
+               Xtf=14.94 Vtf=10)
*		SIEMENS		pid=bc847c	case=SOT23
*		91-08-21 dsq
*$
.model BC848A   NPN(Is=7.049f Xti=3 Eg=1.11 Vaf=106.8 Bf=182.9 Ise=85.16f
+               Ne=1.709 Ikf=.1196 Nk=.5227 Xtb=1.5 Br=3.988 Isc=10.68f
+               Nc=2.417 Ikr=2.721 Rc=1.374 Cjc=7.287p Mjc=.3333 Vjc=.5 Fc=.5
+               Cje=9.485p Mje=.3333 Vje=.5 Tr=10n Tf=662.3p Itf=1.577
+               Xtf=14.27 Vtf=10)
*		SIEMENS		pid=bc846a	case=SOT23
*		91-08-21 dsq
*$
.model BC848B   NPN(Is=7.049f Xti=3 Eg=1.11 Vaf=62.37 Bf=279.1 Ise=59.16f
+               Ne=1.81 Ikf=.2201 Nk=.6305 Xtb=1.5 Br=3.816 Isc=16.17f Nc=2.394
+               Ikr=1.859 Rc=1.508 Cjc=7.287p Mjc=.3333 Vjc=.5 Fc=.5 Cje=9.485p
+               Mje=.3333 Vje=.5 Tr=10n Tf=664p Itf=4.664 Xtf=147 Vtf=10)
*		SIEMENS		pid=bc846b	case=SOT23
*		91-08-21 dsq
*$
.model BC848C   NPN(Is=7.049f Xti=3 Eg=1.11 Vaf=29.03 Bf=462.4 Ise=57.19f
+               Ne=2.002 Ikf=.1609 Nk=.6124 Xtb=1.5 Br=3.988 Isc=10.68f
+               Nc=2.417 Ikr=2.721 Rc=1.374 Cjc=7.287p Mjc=.3333 Vjc=.5 Fc=.5
+               Cje=9.485p Mje=.3333 Vje=.5 Tr=10n Tf=663.1p Itf=1.423
+               Xtf=14.94 Vtf=10)
*		SIEMENS		pid=bc847c	case=SOT23
*		91-08-21 dsq
*$
.model BC849B   NPN(Is=7.049f Xti=3 Eg=1.11 Vaf=62.37 Bf=279.1 Ise=59.16f
+               Ne=1.81 Ikf=.2201 Nk=.6305 Xtb=1.5 Br=3.816 Isc=16.17f Nc=2.394
+               Ikr=1.859 Rc=1.508 Cjc=7.287p Mjc=.3333 Vjc=.5 Fc=.5 Cje=9.485p
+               Mje=.3333 Vje=.5 Tr=10n Tf=664p Itf=4.664 Xtf=147 Vtf=10)
*		SIEMENS		pid=bc846b	case=SOT23
*		91-08-21 dsq
*$
.model BC849C   NPN(Is=7.049f Xti=3 Eg=1.11 Vaf=29.03 Bf=462.4 Ise=57.19f
+               Ne=2.002 Ikf=.1609 Nk=.6124 Xtb=1.5 Br=3.988 Isc=10.68f
+               Nc=2.417 Ikr=2.721 Rc=1.374 Cjc=7.287p Mjc=.3333 Vjc=.5 Fc=.5
+               Cje=9.485p Mje=.3333 Vje=.5 Tr=10n Tf=663.1p Itf=1.423
+               Xtf=14.94 Vtf=10)
*		SIEMENS		pid=bc847c	case=SOT23
*		91-08-21 dsq
*$
.model BC850B   NPN(Is=7.049f Xti=3 Eg=1.11 Vaf=62.37 Bf=279.1 Ise=59.16f
+               Ne=1.81 Ikf=.2201 Nk=.6305 Xtb=1.5 Br=3.816 Isc=16.17f Nc=2.394
+               Ikr=1.859 Rc=1.508 Cjc=7.287p Mjc=.3333 Vjc=.5 Fc=.5 Cje=9.485p
+               Mje=.3333 Vje=.5 Tr=10n Tf=664p Itf=4.664 Xtf=147 Vtf=10)
*		SIEMENS		pid=bc846b	case=SOT23
*		91-08-21 dsq
*$
.model BC850C   NPN(Is=7.049f Xti=3 Eg=1.11 Vaf=29.03 Bf=462.4 Ise=57.19f
+               Ne=2.002 Ikf=.1609 Nk=.6124 Xtb=1.5 Br=3.988 Isc=10.68f
+               Nc=2.417 Ikr=2.721 Rc=1.374 Cjc=7.287p Mjc=.3333 Vjc=.5 Fc=.5
+               Cje=9.485p Mje=.3333 Vje=.5 Tr=10n Tf=663.1p Itf=1.423
+               Xtf=14.94 Vtf=10)
*		SIEMENS		pid=bc847c	case=SOT23
*		91-08-21 dsq
*$
.model BC856A   PNP(Is=336.7f Xti=3 Eg=1.11 Vaf=106.8 Bf=180.6 Ise=2.666p
+               Ne=1.944 Ikf=.1094 Nk=.4986 Xtb=1.5 Br=7.16 Isc=196p Nc=1.815
+               Ikr=9.677 Rc=2.791 Cjc=11.51p Mjc=.3626 Vjc=.5 Fc=.5 Cje=8.397p
+               Mje=.3865 Vje=.5 Tr=10n Tf=605.1p Itf=2.326 Xtf=20.43 Vtf=10)
*		SIEMENS		pid=bc856a	case=SOT23
*		91-08-21 dsq
*$
.model BC856B   PNP(Is=336.7f Xti=3 Eg=1.11 Vaf=62.37 Bf=277.7 Ise=1.966p
+               Ne=2.123 Ikf=.1686 Nk=.545 Xtb=1.5 Br=7.16 Isc=196p Nc=1.815
+               Ikr=9.677 Rc=2.891 Cjc=11.51p Mjc=.3626 Vjc=.5 Fc=.5 Cje=8.397p
+               Mje=.3865 Vje=.5 Tr=10n Tf=605.9p Itf=2.133 Xtf=23.02 Vtf=10)
*		SIEMENS		pid=bc856b	case=SOT23
*		91-08-21 dsq
*$
.model BC857A   PNP(Is=336.7f Xti=3 Eg=1.11 Vaf=106.8 Bf=180.6 Ise=2.666p
+               Ne=1.944 Ikf=.1094 Nk=.4986 Xtb=1.5 Br=7.16 Isc=196p Nc=1.815
+               Ikr=9.677 Rc=2.791 Cjc=11.51p Mjc=.3626 Vjc=.5 Fc=.5 Cje=8.397p
+               Mje=.3865 Vje=.5 Tr=10n Tf=605.1p Itf=2.326 Xtf=20.43 Vtf=10)
*		SIEMENS		pid=bc856a	case=SOT23
*		91-08-21 dsq
*$
.model BC857B   PNP(Is=336.7f Xti=3 Eg=1.11 Vaf=62.37 Bf=277.7 Ise=1.966p
+               Ne=2.123 Ikf=.1686 Nk=.545 Xtb=1.5 Br=7.16 Isc=196p Nc=1.815
+               Ikr=9.677 Rc=2.891 Cjc=11.51p Mjc=.3626 Vjc=.5 Fc=.5 Cje=8.397p
+               Mje=.3865 Vje=.5 Tr=10n Tf=605.9p Itf=2.133 Xtf=23.02 Vtf=10)
*		SIEMENS		pid=bc856b	case=SOT23
*		91-08-21 dsq
*$
.model BC857C   PNP(Is=336.7f Xti=3 Eg=1.11 Vaf=29.03 Bf=462.2 Ise=1.648p
+               Ne=2.405 Ikf=.1165 Nk=.5254 Xtb=1.5 Br=7.16 Isc=196p Nc=1.815
+               Ikr=9.677 Rc=2.791 Cjc=11.51p Mjc=.3626 Vjc=.5 Fc=.5 Cje=8.397p
+               Mje=.3865 Vje=.5 Tr=10n Tf=605.4p Itf=3.088 Xtf=41.48 Vtf=10)
*		SIEMENS		pid=bc857c	case=SOT23
*		91-08-21 dsq
*$
.model BC858A   PNP(Is=336.7f Xti=3 Eg=1.11 Vaf=106.8 Bf=180.6 Ise=2.666p
+               Ne=1.944 Ikf=.1094 Nk=.4986 Xtb=1.5 Br=7.16 Isc=196p Nc=1.815
+               Ikr=9.677 Rc=2.791 Cjc=11.51p Mjc=.3626 Vjc=.5 Fc=.5 Cje=8.397p
+               Mje=.3865 Vje=.5 Tr=10n Tf=605.1p Itf=2.326 Xtf=20.43 Vtf=10)
*		SIEMENS		pid=bc856a	case=SOT23
*		91-08-21 dsq
*$
.model BC858B   PNP(Is=336.7f Xti=3 Eg=1.11 Vaf=62.37 Bf=277.7 Ise=1.966p
+               Ne=2.123 Ikf=.1686 Nk=.545 Xtb=1.5 Br=7.16 Isc=196p Nc=1.815
+               Ikr=9.677 Rc=2.891 Cjc=11.51p Mjc=.3626 Vjc=.5 Fc=.5 Cje=8.397p
+               Mje=.3865 Vje=.5 Tr=10n Tf=605.9p Itf=2.133 Xtf=23.02 Vtf=10)
*		SIEMENS		pid=bc856b	case=SOT23
*		91-08-21 dsq
*$
.model BC858C   PNP(Is=336.7f Xti=3 Eg=1.11 Vaf=29.03 Bf=462.2 Ise=1.648p
+               Ne=2.405 Ikf=.1165 Nk=.5254 Xtb=1.5 Br=7.16 Isc=196p Nc=1.815
+               Ikr=9.677 Rc=2.791 Cjc=11.51p Mjc=.3626 Vjc=.5 Fc=.5 Cje=8.397p
+               Mje=.3865 Vje=.5 Tr=10n Tf=605.4p Itf=3.088 Xtf=41.48 Vtf=10)
*		SIEMENS		pid=bc857c	case=SOT23
*		91-08-21 dsq
*$
.model BC859A   PNP(Is=336.7f Xti=3 Eg=1.11 Vaf=106.8 Bf=180.6 Ise=2.666p
+               Ne=1.944 Ikf=.1094 Nk=.4986 Xtb=1.5 Br=7.16 Isc=196p Nc=1.815
+               Ikr=9.677 Rc=2.791 Cjc=11.51p Mjc=.3626 Vjc=.5 Fc=.5 Cje=8.397p
+               Mje=.3865 Vje=.5 Tr=10n Tf=605.1p Itf=2.326 Xtf=20.43 Vtf=10)
*		SIEMENS		pid=bc856a	case=SOT23
*		91-08-21 dsq
*$
.model BC859B   PNP(Is=336.7f Xti=3 Eg=1.11 Vaf=62.37 Bf=277.7 Ise=1.966p
+               Ne=2.123 Ikf=.1686 Nk=.545 Xtb=1.5 Br=7.16 Isc=196p Nc=1.815
+               Ikr=9.677 Rc=2.891 Cjc=11.51p Mjc=.3626 Vjc=.5 Fc=.5 Cje=8.397p
+               Mje=.3865 Vje=.5 Tr=10n Tf=605.9p Itf=2.133 Xtf=23.02 Vtf=10)
*		SIEMENS		pid=bc856b	case=SOT23
*		91-08-21 dsq
*$
.model BC859C   PNP(Is=336.7f Xti=3 Eg=1.11 Vaf=29.03 Bf=462.2 Ise=1.648p
+               Ne=2.405 Ikf=.1165 Nk=.5254 Xtb=1.5 Br=7.16 Isc=196p Nc=1.815
+               Ikr=9.677 Rc=2.791 Cjc=11.51p Mjc=.3626 Vjc=.5 Fc=.5 Cje=8.397p
+               Mje=.3865 Vje=.5 Tr=10n Tf=605.4p Itf=3.088 Xtf=41.48 Vtf=10)
*		SIEMENS		pid=bc857c	case=SOT23
*		91-08-21 dsq
*$
.model BC860B   PNP(Is=336.7f Xti=3 Eg=1.11 Vaf=62.37 Bf=277.7 Ise=1.966p
+               Ne=2.123 Ikf=.1686 Nk=.545 Xtb=1.5 Br=7.16 Isc=196p Nc=1.815
+               Ikr=9.677 Rc=2.891 Cjc=11.51p Mjc=.3626 Vjc=.5 Fc=.5 Cje=8.397p
+               Mje=.3865 Vje=.5 Tr=10n Tf=605.9p Itf=2.133 Xtf=23.02 Vtf=10)
*		SIEMENS		pid=bc856b	case=SOT23
*		91-08-21 dsq
*$
.model BC860C   PNP(Is=336.7f Xti=3 Eg=1.11 Vaf=29.03 Bf=462.2 Ise=1.648p
+               Ne=2.405 Ikf=.1165 Nk=.5254 Xtb=1.5 Br=7.16 Isc=196p Nc=1.815
+               Ikr=9.677 Rc=2.791 Cjc=11.51p Mjc=.3626 Vjc=.5 Fc=.5 Cje=8.397p
+               Mje=.3865 Vje=.5 Tr=10n Tf=605.4p Itf=3.088 Xtf=41.48 Vtf=10)
*		SIEMENS		pid=bc857c	case=SOT23
*		91-08-21 dsq
*$
.model BCW60A   NPN(Is=26.39f Xti=3 Eg=1.11 Vaf=106.8 Bf=167.4 Ise=254.6f
+               Ne=1.806 Ikf=1.363 Nk=.5 Xtb=1.5 Br=9.901 Isc=20.57p Nc=1.912
+               Ikr=3.201 Rc=3.001 Cjc=11.51p Mjc=.3626 Vjc=.5 Fc=.5 Cje=8.397p
+               Mje=.3865 Vje=.5 Tr=10n Tf=597.7p Itf=2.959 Xtf=293.8 Vtf=10)
*		SIEMENS		pid=bcw60a	case=SOT23
*		91-08-22 dsq
*$
.model BCW60B   NPN(Is=26.39f Xti=3 Eg=1.11 Vaf=79.03 Bf=243.1 Ise=274.6f
+               Ne=1.859 Ikf=1.798 Nk=.5 Xtb=1.5 Br=8.91 Isc=13.41p Nc=1.847
+               Ikr=7.019 Rc=3.011 Cjc=11.51p Mjc=.3626 Vjc=.5 Fc=.5 Cje=8.397p
+               Mje=.3865 Vje=.5 Tr=10n Tf=596.8p Itf=2.553 Xtf=234.7 Vtf=10)
*		SIEMENS		pid=bcw60b	case=SOT23
*		91-08-22 dsq
*$
.model BCW60C   NPN(Is=26.39f Xti=3 Eg=1.11 Vaf=62.37 Bf=331.9 Ise=278.6f