* Library of Japanese Bipolar Transistor Models

*  Copyright OrCAD, Inc. 1998 All Rights Reserved.

* $Revision:   1.8  $
* $Author:   rperez  $
* $Date:   17 Nov 1998 10:47:02  $
*
* ---------------------------------------------------------------------------
* The parameters in this model library were derived from the data sheets for
* each part.  Each part was characterized using the Parts option.
* ---------------------------------------------------------------------------
*$
.model Q2sa1013 PNP(Is=870.1f Xti=3 Eg=1.11 Vaf=100 Bf=89.84 Ise=9.273p
+               Ne=1.707 Ikf=9.984 Nk=1.378 Xtb=1.5 Var=100 Br=5.859 Isc=36.36n
+               Nc=2.341 Ikr=1.186 Rc=.2517 Cjc=97.63p Mjc=.5073 Vjc=1.206
+               Fc=.5 Cje=5p Mje=.3333 Vje=.75 Tr=10n Tf=4.077n Itf=2.562 Xtf=0
+               Vtf=10)
*$
.model Q2sa1015 PNP(Is=2.04f Xti=3 Eg=1.11 Vaf=100 Bf=183 Ise=2.14f Ne=1.465
+               Ikf=1.5 Nk=1.319 Xtb=1.5 Var=100 Br=10.97 Isc=2.619f Nc=1.707
+               Ikr=26.37m Rc=.5 Cjc=9.716p Mjc=.3333 Vjc=.75 Fc=.5 Cje=5p
+               Mje=.3333 Vje=.75 Tr=10n Tf=452.4p Itf=5 Xtf=0 Vtf=10)
*$
.model Q2sa1018 PNP(Is=336.7f Xti=3 Eg=1.11 Vaf=100 Bf=128.7 Ise=336.7f
+               Ne=1.498 Ikf=77.61m Nk=.1824 Xtb=1.5 Var=100 Br=1.428
+               Isc=58.09p Nc=1.221 Ikr=5.008 Rc=1.58 Cjc=22.61p Mjc=.4547
+               Vjc=.7161 Fc=.5 Cje=5p Mje=.3333 Vje=.75 Tr=10n Tf=2.156n
+               Itf=6.686 Xtf=0 Vtf=10)
*$
.model Q2sa1022 PNP(Is=9.744f Xti=3 Eg=1.11 Vaf=100 Bf=70.95 Ise=271.2f
+               Ne=1.706 Ikf=.2425 Nk=.9334 Xtb=1.5 Var=100 Br=1 Isc=273.8p
+               Nc=1.938 Ikr=19.55 Rc=15.32 Cjc=4.63p Mjc=.268 Vjc=.4964 Fc=.5
+               Cje=5p Mje=.3333 Vje=.75 Tr=10n Tf=246.8p Itf=62.84m Xtf=7.012
+               Vtf=10)
*$
.model Q2sa1029 PNP(Is=8.031f Xti=3 Eg=1.11 Vaf=100 Bf=387.2 Ise=119.8f
+               Ne=2.477 Ikf=.1914 Nk=.344 Xtb=1.5 Var=100 Br=5.495 Isc=8.031f
+               Nc=1.116 Ikr=4.897 Rc=1.037 Cjc=8.016p Mjc=.3333 Vjc=.75 Fc=.5
+               Cje=5p Mje=.3333 Vje=.75 Tr=10n Tf=361p Itf=7.398 Xtf=0 Vtf=10)
*$
.model Q2sa1030 PNP(Is=8.031f Xti=3 Eg=1.11 Vaf=100 Bf=387.2 Ise=119.8f
+               Ne=2.477 Ikf=.1914 Nk=.344 Xtb=1.5 Var=100 Br=5.495 Isc=8.031f
+               Nc=1.116 Ikr=4.897 Rc=1.037 Cjc=8.016p Mjc=.3333 Vjc=.75 Fc=.5
+               Cje=5p Mje=.3333 Vje=.75 Tr=10n Tf=361p Itf=7.398 Xtf=0 Vtf=10)
*$
.model Q2sa1031 PNP(Is=8.031f Xti=3 Eg=1.11 Vaf=100 Bf=387.2 Ise=119.8f
+               Ne=2.477 Ikf=.1914 Nk=.344 Xtb=1.5 Var=100 Br=5.495 Isc=8.031f
+               Nc=1.116 Ikr=4.897 Rc=1.037 Cjc=8.016p Mjc=.3333 Vjc=.75 Fc=.5
+               Cje=5p Mje=.3333 Vje=.75 Tr=10n Tf=361p Itf=7.398 Xtf=0 Vtf=10)
*$
.model Q2sa1032 PNP(Is=8.031f Xti=3 Eg=1.11 Vaf=100 Bf=387.2 Ise=119.8f
+               Ne=2.477 Ikf=.1914 Nk=.344 Xtb=1.5 Var=100 Br=5.495 Isc=8.031f
+               Nc=1.116 Ikr=4.897 Rc=1.037 Cjc=8.016p Mjc=.3333 Vjc=.75 Fc=.5
+               Cje=5p Mje=.3333 Vje=.75 Tr=10n Tf=361p Itf=7.398 Xtf=0 Vtf=10)
*$
.model Q2sa1034 PNP(Is=32.17p Xti=3 Eg=1.11 Vaf=100 Bf=383.2 Ise=32.18p
+               Ne=1.941 Ikf=87.13m Nk=.5764 Xtb=1.5 Var=100 Br=2 Isc=144.7p
+               Nc=2 Ikr=3.629 Rc=2.2 Cjc=19.32p Mjc=.5307 Vjc=1.129 Fc=.5
+               Cje=5p Mje=.3333 Vje=.75 Tr=10n Tf=614.3p Itf=3.39 Xtf=0 Vtf=10)
*$
.model Q2sa1035 PNP(Is=32.17p Xti=3 Eg=1.11 Vaf=100 Bf=383.2 Ise=32.18p
+               Ne=1.941 Ikf=87.13m Nk=.5764 Xtb=1.5 Var=100 Br=2 Isc=144.7p
+               Nc=2 Ikr=3.629 Rc=2.2 Cjc=19.32p Mjc=.5307 Vjc=1.129 Fc=.5
+               Cje=5p Mje=.3333 Vje=.75 Tr=10n Tf=614.3p Itf=3.39 Xtf=0 Vtf=10)
*$
.model Q2sa1048 PNP(Is=2.04f Xti=3 Eg=1.11 Vaf=100 Bf=183 Ise=2.14f Ne=1.465
+               Ikf=1.5 Nk=1.319 Xtb=1.5 Var=100 Br=10.97 Isc=2.619f Nc=1.707
+               Ikr=26.37m Rc=.5 Cjc=9.716p Mjc=.3333 Vjc=.75 Fc=.5 Cje=5p
+               Mje=.3333 Vje=.75 Tr=10n Tf=452.4p Itf=5 Xtf=0 Vtf=10)
*$
.model Q2sa1049 PNP(Is=1.009p Xti=3 Eg=1.11 Vaf=100 Bf=407.1 Ise=55.78p
+               Ne=2.768 Ikf=.4999 Nk=1.257 Xtb=1.5 Var=100 Br=10.15 Isc=1.073p
+               Nc=.9957 Ikr=1.635m Rc=1.121 Cjc=11.61p Mjc=.3893 Vjc=.9642
+               Fc=.5 Cje=5p Mje=.3333 Vje=.75 Tr=10n Tf=1.261n Itf=1 Xtf=0
+               Vtf=10)
*$
.model Q2sa1052 PNP(Is=8.031f Xti=3 Eg=1.11 Vaf=100 Bf=387.2 Ise=119.8f
+               Ne=2.477 Ikf=.1914 Nk=.344 Xtb=1.5 Var=100 Br=5.495 Isc=8.031f
+               Nc=1.116 Ikr=4.897 Rc=1.037 Cjc=8.016p Mjc=.3333 Vjc=.75 Fc=.5
+               Cje=5p Mje=.3333 Vje=.75 Tr=10n Tf=361p Itf=7.398 Xtf=0 Vtf=10)
*$
.model Q2sa1121 PNP(Is=67.45f Xti=3 Eg=1.11 Vaf=100 Bf=344 Ise=112.9f Ne=1.25
+               Ikf=2.863 Nk=1.415 Xtb=1.5 Var=100 Br=11.28 Isc=213.6f Nc=1.538
+               Ikr=24.25m Rc=.3518 Cjc=25.63p Mjc=.3468 Vjc=.5189 Fc=.5
+               Cje=67.6p Mje=.4664 Vje=.8472 Tr=113.6n Tf=775.3p Itf=4.284
+               Xtf=53.98 Vtf=10)
*$
.model Q2sa1122 PNP(Is=9.744f Xti=3 Eg=1.11 Vaf=100 Bf=308 Ise=156.5p Ne=4.074
+               Ikf=91.59m Nk=.8952 Xtb=1.5 Var=100 Br=1 Isc=9.744f Nc=2 Ikr=0
+               Rc=0 Cjc=5.018p Mjc=.2815 Vjc=.3905 Fc=.5 Cje=5p Mje=.3333
+               Vje=.75 Tr=10n Tf=663.1p Itf=1 Xtf=0 Vtf=10)
*$
.model Q2sa1123 PNP(Is=19.86f Xti=3 Eg=1.11 Vaf=40.22 Bf=263.8 Ise=191.3f
+               Ne=1.749 Ikf=.123 Nk=.8743 Xtb=1.5 Var=100 Br=1 Isc=282.8p
+               Nc=1.876 Ikr=.8554 Rc=5.909 Cjc=6.808p Mjc=.2705 Vjc=.3905
+               Fc=.5 Cje=5p Mje=.3333 Vje=.75 Tr=10n Tf=1n Itf=1 Xtf=0 Vtf=10)
*$
.model Q2sa1124 PNP(Is=437.8f Xti=3 Eg=1.11 Vaf=41.62 Bf=264.5 Ise=3.172p
+               Ne=1.936 Ikf=69.77m Nk=.5 Xtb=1.5 Var=100 Br=1 Isc=865.7p
+               Nc=1.787 Ikr=19.82 Rc=6.118 Cjc=6.581p Mjc=.265 Vjc=.3905 Fc=.5
+               Cje=5p Mje=.3333 Vje=.75 Tr=10n Tf=780.2p Itf=1.268 Xtf=365.6
+               Vtf=10)
*$
.model Q2sa1127 PNP(Is=1.459p Xti=3 Eg=1.11 Vaf=100 Bf=402.2 Ise=1.525p
+               Ne=1.649 Ikf=59.42m Nk=.4934 Xtb=1.5 Var=100 Br=1 Isc=1.477p
+               Nc=2.383 Ikr=7.294 Rc=1.169 Cjc=12.57p Mjc=.5552 Vjc=.7342
+               Fc=.5 Cje=5p Mje=.3333 Vje=.75 Tr=10n Tf=1n Itf=1 Xtf=0 Vtf=10)
*$
.model Q2sa1128 PNP(Is=331f Xti=3 Eg=1.11 Vaf=33.48 Bf=240.7 Ise=3.039p
+               Ne=1.761 Ikf=1.02 Nk=.7043 Xtb=1.5 Var=100 Br=24.07 Isc=331f
+               Nc=1.54 Ikr=13.21 Rc=.4299 Cjc=78.31p Mjc=.4709 Vjc=.3906 Fc=.5
+               Cje=5p Mje=.3333 Vje=.75 Tr=10n Tf=1n Itf=1 Xtf=0 Vtf=10)
*$
.model Q2sa1145 PNP(Is=67.34f Xti=3 Eg=1.11 Vaf=100 Bf=152.4 Ise=67.34f
+               Ne=1.396 Ikf=.5 Nk=1.913 Xtb=1.5 Var=100 Br=1 Isc=314.9f
+               Nc=1.082 Ikr=6.118 Rc=3.162 Cjc=6.536p Mjc=.3434 Vjc=.6025
+               Fc=.5 Cje=5p Mje=.3333 Vje=.75 Tr=10n Tf=833.2p Itf=5.198
+               Xtf=644 Vtf=10)
*$
.model Q2sa1150 PNP(Is=89.93f Xti=3 Eg=1.11 Vaf=100 Bf=180 Ise=2.113p Ne=1.947
+               Ikf=4.9 Nk=1.747 Xtb=1.5 Var=100 Br=39.6 Isc=23.23p Nc=1.428
+               Ikr=12.24 Rc=.276 Cjc=46.15p Mjc=.3333 Vjc=.75 Fc=.5 Cje=5p
+               Mje=.3333 Vje=.75 Tr=10n Tf=1.199n Itf=1 Xtf=0 Vtf=10)
*$
.model Q2sa1162 PNP(Is=2.04f Xti=3 Eg=1.11 Vaf=100 Bf=183 Ise=2.14f Ne=1.465
+               Ikf=1.5 Nk=1.319 Xtb=1.5 Var=100 Br=10.97 Isc=2.619f Nc=1.707
+               Ikr=26.37m Rc=.5 Cjc=9.716p Mjc=.3333 Vjc=.75 Fc=.5 Cje=5p
+               Mje=.3333 Vje=.75 Tr=10n Tf=452.4p Itf=5 Xtf=0 Vtf=10)
*$
.model q2sa1163 PNP(Is=465.4f Xti=3 Eg=1.11 Vaf=57.81 Bf=400.1 Ise=5.752p
+               Ne=2.115 Ikf=.5 Nk=1.459 Xtb=1.5 Var=100 Br=1 Isc=683.8f
+               Nc=1.114 Ikr=1.597m Rc=.869 Cjc=16.12p Mjc=.3867 Vjc=.3907
+               Fc=.5 Cje=5p Mje=.3333 Vje=.75 Tr=10n Tf=1.255n Itf=1 Xtf=0
+               Vtf=10)
*$
.model Q2sa1171 PNP(Is=9.744f Xti=3 Eg=1.11 Vaf=100 Bf=509.1 Ise=65.86f
+               Ne=1.902 Ikf=15.38m Nk=.3523 Xtb=1.5 Var=100 Br=1 Isc=0 Nc=2
+               Ikr=0 Rc=0 Cjc=5.793p Mjc=.3372 Vjc=.3905 Fc=.5 Cje=5p
+               Mje=.3333 Vje=.75 Tr=10n Tf=1.357n Itf=1.182 Xtf=372.5 Vtf=10)
*$
.MODEL Q2SA1173 PNP IS=31.08E-15 BF=215.9 VAF=203.5 IKF=.3751 ISE=1.041E-12
+ NE=2 BR=.7801 VAR=100 IKR=19.73 ISC=179.2E-12 NC=1.935 NK=1.626 RC=5.492
+ CJE=15.08E-12 VJE=1.500 MJE=.8738 CJC=7.673E-12 VJC=.35 MJC=.3269 TF=1.892E-9
+ XTF=7.366 VTF=10 ITF=.1367 TR=10.00E-9
*$
.model Q2sa1174 PNP(Is=457.5f Xti=3 Eg=1.11 Vaf=69.92 Bf=522.3 Ise=4.26p
+               Ne=2.239 Ikf=30.91m Nk=.5 Xtb=1.5 Var=100 Br=1 Isc=457.5f
+               Nc=2.287 Ikr=3.273 Rc=2.701 Cjc=7.121p Mjc=.2846 Vjc=.3905
+               Fc=.5 Cje=2.204p Mje=.1488 Vje=.3905 Tr=29.36n Tf=1.507n
+               Itf=6.98 Xtf=89.76u Vtf=10)
*$
.model Q2sa1175 PNP(Is=30.55f Xti=3 Eg=1.11 Vaf=42.93 Bf=196.4 Ise=2.783p
+               Ne=2.03 Ikf=.2942 Nk=.5 Xtb=1.5 Var=100 Br=3.111 Isc=4.182p
+               Nc=1.454 Ikr=5.423m Rc=1.395 Cjc=13.5p Mjc=.3638 Vjc=.4888
+               Fc=.5 Cje=5p Mje=.3333 Vje=.75 Tr=10n Tf=885.4p Itf=89.82
+               Xtf=16.92K Vtf=10)
*$
.model Q2sa1182 PNP(Is=1.77p Xti=3 Eg=1.11 Vaf=100 Bf=159.9 Ise=2.09p Ne=1.592
+               Ikf=2.262 Nk=.9728 Xtb=1.5 Var=100 Br=4.91 Isc=1.512n Nc=1.948
+               Ikr=40.75m Rc=.1863 Cjc=27.04p Mjc=.3333 Vjc=.75 Fc=.5 Cje=5p
+               Mje=.3333 Vje=.75 Tr=10n Tf=768.1p Itf=1 Xtf=0 Vtf=10)
*$
.model Q2sa1188 PNP(Is=9.744f Xti=3 Eg=1.11 Vaf=100 Bf=428.2 Ise=25.11f
+               Ne=1.595 Ikf=.2969 Nk=.9711 Xtb=1.5 Var=100 Br=2.698 Isc=73.96f
+               Nc=2.965 Ikr=36.57 Rc=.648 Cjc=6.585p Mjc=.213 Vjc=.3905 Fc=.5
+               Cje=5p Mje=.3333 Vje=.75 Tr=10n Tf=1.539n Itf=.7531 Xtf=14.36
+               Vtf=10)
*$
.model Q2sa1189 PNP(Is=9.744f Xti=3 Eg=1.11 Vaf=100 Bf=428.2 Ise=25.11f
+               Ne=1.595 Ikf=.2969 Nk=.9711 Xtb=1.5 Var=100 Br=2.698 Isc=73.96f
+               Nc=2.965 Ikr=36.57 Rc=.648 Cjc=6.585p Mjc=.213 Vjc=.3905 Fc=.5
+               Cje=5p Mje=.3333 Vje=.75 Tr=10n Tf=1.539n Itf=.7531 Xtf=14.36
+               Vtf=10)
*$
.model Q2sa1190 PNP(Is=9.744f Xti=3 Eg=1.11 Vaf=100 Bf=428.2 Ise=25.11f
+               Ne=1.595 Ikf=.2969 Nk=.9711 Xtb=1.5 Var=100 Br=2.698 Isc=73.96f
+               Nc=2.965 Ikr=36.57 Rc=.648 Cjc=6.585p Mjc=.213 Vjc=.3905 Fc=.5
+               Cje=5p Mje=.3333 Vje=.75 Tr=10n Tf=1.539n Itf=.7531 Xtf=14.36
+               Vtf=10)
*$
.model Q2sa1191 PNP(Is=9.744f Xti=3 Eg=1.11 Vaf=100 Bf=428.2 Ise=25.11f
+               Ne=1.595 Ikf=.2969 Nk=.9711 Xtb=1.5 Var=100 Br=2.698 Isc=73.96f
+               Nc=2.965 Ikr=36.57 Rc=.648 Cjc=6.585p Mjc=.213 Vjc=.3905 Fc=.5
+               Cje=5p Mje=.3333 Vje=.75 Tr=10n Tf=1.539n Itf=.7531 Xtf=14.36
+               Vtf=10)
*$
.model Q2sa1203 PNP(Is=13.96p Xti=3 Eg=1.11 Vaf=100 Bf=290.2 Ise=91.46p
+               Ne=2.153 Ikf=1.042 Nk=.4953 Xtb=1.5 Var=100 Br=6.527 Isc=39.23p
+               Nc=1.2 Ikr=.9167 Rc=.1249 Cjc=34.01p Mjc=.3333 Vjc=.75 Fc=.5
+               Cje=5p Mje=.3333 Vje=.75 Tr=10n Tf=1.324n Itf=1 Xtf=0 Vtf=10)
*$
.model Q2sa1204 PNP(Is=621.6f Xti=3 Eg=1.11 Vaf=100 Bf=199 Ise=3.843p Ne=1.793
+               Ikf=1.042 Nk=.6675 Xtb=1.5 Var=100 Br=26.52K Isc=2.11p Nc=1.179
+               Ikr=144.5 Rc=.3017 Cjc=46.15p Mjc=.3333 Vjc=.75 Fc=.5 Cje=5p
+               Mje=.3333 Vje=.75 Tr=10n Tf=1.243n Itf=1 Xtf=0 Vtf=10)
*$
.model Q2sa1206 PNP(Is=9.577f Xti=3 Eg=1.11 Vaf=100 Bf=165.1 Ise=11.27f
+               Ne=1.246 Ikf=.1015 Nk=.7236 Xtb=1.5 Var=100 Br=1 Isc=9.577f
+               Nc=1.647 Ikr=2.448 Rc=2.748 Cjc=2.651p Mjc=.1204 Vjc=.6623
+               Fc=.5 Cje=2.204p Mje=.1488 Vje=.3905 Tr=29.36n Tf=60.13p
+               Itf=49.6m Xtf=1.595 Vtf=10)
*$
.MODEL Q2SA1235 PNP IS=230.5E-12 BF=115.2 VAF=100 IKF=71.60E-3 ISE=347.4E-12
+ NE=1.998 BR=.1001 VAR=100 IKR=10.00E-3 ISC=230.5E-12 NK=.4322 CJC=15.29E-12
+ VJC=.3503 MJC=.4419 TF=999.2E-12 XTF=.5988 VTF=.1821 ITF=173.9 TR=10.00E-9
*$
.model Q2sa1254 PNP(Is=9.744f Xti=3 Eg=1.11 Vaf=100 Bf=70.95 Ise=271.2f
+               Ne=1.706 Ikf=.2425 Nk=.9334 Xtb=1.5 Var=100 Br=1 Isc=273.8p
+               Nc=1.938 Ikr=19.55 Rc=15.32 Cjc=4.63p Mjc=.268 Vjc=.4964 Fc=.5
+               Cje=5p Mje=.3333 Vje=.75 Tr=10n Tf=246.8p Itf=62.84m Xtf=7.012
+               Vtf=10)
*$
.model Q2sa1255 PNP(Is=465.4f Xti=3 Eg=1.11 Vaf=100 Bf=141.3 Ise=465.4f
+               Ne=1.385 Ikf=.3 Nk=1.97 Xtb=1.5 Var=100 Br=1.693 Isc=19.63p
+               Nc=1.131 Ikr=.5604 Rc=15.37 Cjc=7.287p Mjc=.3333 Vjc=.75 Fc=.5
+               Cje=5p Mje=.3333 Vje=.75 Tr=23.25u Tf=1.453n Itf=1 Xtf=0 Vtf=10)
*$
.MODEL Q2SA1285 PNP IS=785.4E-15 BF=120 VAF=148.3 IKF=.9985 ISE=785.4E-15
+ NE=1.437 BR=.1001 VAR=100 IKR=10.00E-3 ISC=785.4E-15 NK=1.835 CJC=8.891E-12
+ VJC=.35 MJC=.2454 TF=1.326E-9 VTF=11.18 ITF=453.3 TR=10.00E-9
*$
.MODEL Q2SA1286 PNP IS=53.87E-12 BF=755.6 VAF=13.20 IKF=12 ISE=53.87E-15 NE=2
+ BR=498.2 VAR=100 IKR=6.877 ISC=58.03E-12 NC=2.491 RC=.4674 CJC=159.9E-12
+ VJC=.3503 MJC=.4359 TF=858.1E-12 XTF=1.504E-3 VTF=100.3 ITF=99.81E3
+ TR=10.00E-9
*$
.MODEL Q2SA1287 PNP IS=53.87E-15 BF=1.800E3 VAF=150 IKF=10.01E-3 ISE=11.45E-12
+ NE=1.998 BR=44.03 VAR=100 IKR=10.00E-3 ISC=53.87E-15 NK=.251 CJC=149.6E-12
+ VJC=.35 MJC=.471 TF=1.238E-9 VTF=20 ITF=99.75E3 TR=1.000E-9
*$
.MODEL Q2SA1299 PNP IS=5.387E-15 BF=105.7 VAF=398.2 IKF=.1328 ISE=43.99E-15
+ NE=1.659 BR=2 VAR=100 IKR=.1001 ISC=5.387E-15 CJC=14.42E-12 VJC=.35 MJC=.4265
+ TF=956.2E-12 VTF=10.12 ITF=198.6 TR=10.00E-9
*$
.model Q2sa1309 PNP(Is=2.21f Xti=3 Eg=1.11 Vaf=100 Bf=287.3 Ise=23.38f Ne=1.632
+               Ikf=.1006 Nk=.442 Xtb=1.5 Var=100 Br=7.081 Isc=35.45f Nc=1.219
+               Ikr=6.377 Rc=3.066 Cjc=7.215p Mjc=.301 Vjc=.3905 Fc=.5 Cje=5p
+               Mje=.3333 Vje=.75 Tr=10n Tf=1n Itf=1 Xtf=0 Vtf=10)
*$
.model Q2sa1310 PNP(Is=96.5p Xti=3 Eg=1.11 Vaf=100 Bf=399 Ise=96.5p Ne=2.092
+               Ikf=59.58m Nk=.4419 Xtb=1.5 Var=100 Br=1.806 Isc=4.28n Nc=1.988
+               Ikr=42.01m Rc=1.951 Cjc=10.43p Mjc=.5234 Vjc=1.081 Fc=.5 Cje=5p
+               Mje=.3333 Vje=.75 Tr=10n Tf=1n Itf=1 Xtf=0 Vtf=10)
*$
.model Q2sa1312 PNP(Is=465.4f Xti=3 Eg=1.11 Vaf=55.42 Bf=402.1 Ise=1.909p
+               Ne=1.86 Ikf=.4984 Nk=1.463 Xtb=1.5 Var=100 Br=1 Isc=620.5f
+               Nc=1.111 Ikr=20.07 Rc=3.939 Cjc=12.11p Mjc=.3862 Vjc=.8655
+               Fc=.5 Cje=5p Mje=.3333 Vje=.75 Tr=10n Tf=1.256n Itf=1 Xtf=0
+               Vtf=10)
*$
.model Q2sa1313 PNP(Is=2.606p Xti=3 Eg=1.11 Vaf=100 Bf=155.3 Ise=20.62p
+               Ne=1.944 Ikf=1.025 Nk=.5984 Xtb=1.5 Var=100 Br=6.615 Isc=1.112n
+               Nc=1.768 Ikr=.3961 Rc=.5258 Cjc=27.04p Mjc=.3333 Vjc=.75 Fc=.5
+               Cje=5p Mje=.3333 Vje=.75 Tr=10n Tf=768p Itf=1 Xtf=0 Vtf=10)
*$
.model Q2sa1323 PNP(Is=67.34f Xti=3 Eg=1.11 Vaf=100 Bf=70.46 Ise=1.107p
+               Ne=1.751 Ikf=.2173 Nk=.8274 Xtb=1.5 Var=100 Br=1 Isc=3.216p
+               Nc=1.238 Ikr=101.2 Rc=13.72 Cjc=3.972p Mjc=.2261 Vjc=.3906
+               Fc=.5 Cje=5p Mje=.3333 Vje=.75 Tr=10n Tf=418.4p Itf=16.44m
+               Xtf=3.408 Vtf=10)
*$
.model Q2sa1337 PNP(Is=8.031f Xti=3 Eg=1.11 Vaf=100 Bf=387.2 Ise=119.8f
+               Ne=2.477 Ikf=.1914 Nk=.344 Xtb=1.5 Var=100 Br=5.495 Isc=8.031f
+               Nc=1.116 Ikr=4.897 Rc=1.037 Cjc=8.016p Mjc=.3333 Vjc=.75 Fc=.5
+               Cje=5p Mje=.3333 Vje=.75 Tr=10n Tf=361p Itf=7.398 Xtf=0 Vtf=10)
*$
.model Q2sa1349 PNP(Is=11.12p Xti=3 Eg=1.11 Vaf=73.64 Bf=465.8 Ise=11.18p
+               Ne=14.46 Ikf=.3195 Nk=1.163 Xtb=1.5 Var=100 Br=1.388K
+               Isc=11.12p Nc=1.038 Ikr=44.24 Rc=29.73 Cjc=11.79p Mjc=.3037
+               Vjc=.3905 Fc=.5 Cje=5p Mje=.3333 Vje=.75 Tr=10n Tf=1n Itf=1
+               Xtf=0 Vtf=10)
*$
.model Q2sa1350 PNP(Is=8.031f Xti=3 Eg=1.11 Vaf=100 Bf=387.2 Ise=119.8f
+               Ne=2.477 Ikf=.1914 Nk=.344 Xtb=1.5 Var=100 Br=5.495 Isc=8.031f
+               Nc=1.116 Ikr=4.897 Rc=1.037 Cjc=8.016p Mjc=.3333 Vjc=.75 Fc=.5
+               Cje=5p Mje=.3333 Vje=.75 Tr=10n Tf=361p Itf=7.398 Xtf=0 Vtf=10)
*$
.model Q2sa1362 PNP(Is=52.95f Xti=3 Eg=1.11 Vaf=100 Bf=272.7 Ise=595.8f Ne=2.24
+               Ikf=2.261 Nk=.8157 Xtb=1.5 Var=100 Br=56.83 Isc=418.1f Nc=1.515
+               Ikr=.8351 Rc=.2538 Cjc=31.58p Mjc=.3333 Vjc=.75 Fc=.5 Cje=5p
+               Mje=.3333 Vje=.75 Tr=10n Tf=1.262n Itf=1 Xtf=0 Vtf=10)
*$
.MODEL Q2SA1368 PNP IS=10.00E-15 BF=120 VAF=100 IKF=3.680 ISE=5.524E-12 NE=2
+ VAR=100 IKR=10.00E-3 NK=1.423 CJC=40.99E-12 VJC=.35 MJC=.3708 TF=906.7E-12
+ VTF=10 ITF=273.8 TR=10.00E-9
*$
.model Q2sa1374 PNP(Is=9.744f Xti=3 Eg=1.11 Vaf=100 Bf=308 Ise=156.5p Ne=4.074
+               Ikf=91.59m Nk=.8952 Xtb=1.5 Var=100 Br=1 Isc=9.744f Nc=2 Ikr=0
+               Rc=0 Cjc=5.018p Mjc=.2815 Vjc=.3905 Fc=.5 Cje=5p Mje=.3333
+               Vje=.75 Tr=10n Tf=663.1p Itf=1 Xtf=0 Vtf=10)
*$
.model Q2sa1390 PNP(Is=67.45f Xti=3 Eg=1.11 Vaf=100 Bf=344 Ise=112.9f Ne=1.25
+               Ikf=2.863 Nk=1.415 Xtb=1.5 Var=100 Br=11.28 Isc=213.6f Nc=1.538
+               Ikr=24.25m Rc=.3518 Cjc=25.63p Mjc=.3468 Vjc=.5189 Fc=.5
+               Cje=67.6p Mje=.4664 Vje=.8472 Tr=113.6n Tf=775.3p Itf=4.284
+               Xtf=53.98 Vtf=10)
*$
.model Q2SA1410 PNP(Is=48.72f Xti=3 Eg=1.11 Vaf=40 Bf=971.5 Ise=50.18f Ne=3.458
+               Ikf=36.6 Nk=.4212 Xtb=1.5 Var=100 Br=40 Isc=10p Nc=1.636
+               Ikr=1.825 Rc=11 Cjc=11.06p Mjc=.3795 Vjc=.5374 Fc=.5 Cje=5p
+               Mje=.3333 Vje=.75 Tr=50p Tf=810.9p Itf=6.732 Xtf=2.045K Vtf=10)
*$
.model Q2SA1459 PNP(Is=957.7E-18 Xti=3 Eg=1.11 Vaf=100 Bf=101.5 Ise=569.7f
+               Ne=1.543 Ikf=211.6 Nk=.8644 Xtb=1.5 Var=100 Br=3.754 Isc=2.111p
+               Nc=1.36 Ikr=49.1 Rc=3.276m Cjc=2.605p Mjc=.1711 Vjc=1.571 Fc=.5
+               Cje=2.175p Mje=.1691 Vje=.6246 Tr=15.21n Tf=64.74p Itf=36.68m
+               Xtf=1.863 Vtf=10)
*$
.model Q2sa1484 PNP(Is=50.73n Xti=3 Eg=1.11 Vaf=100 Bf=415.3 Ise=50.73n
+               Ne=6.615 Ikf=.3224 Nk=1.007 Xtb=1.5 Var=100 Br=3.005 Isc=50.73n
+               Nc=1.695 Ikr=1.762 Rc=.6991 Cjc=2p Mjc=.3333 Vjc=.75 Fc=.5
+               Cje=5p Mje=.3333 Vje=.75 Tr=10n Tf=1n Itf=1 Xtf=0 Vtf=10)
*$
.model Q2sa1487 PNP(Is=14.34f Xti=3 Eg=1.11 Vaf=100 Bf=145.4 Ise=204.3f
+               Ne=1.469 Ikf=23.08m Nk=.3031 Xtb=1.5 Var=100 Br=1 Isc=20.87f
+               Nc=1.716 Ikr=4.845 Rc=3.699 Cjc=6.575p Mjc=.267 Vjc=.3905 Fc=.5
+               Cje=5p Mje=.3333 Vje=.75 Tr=10n Tf=232.5p Itf=6.807 Xtf=2.802K
+               Vtf=10)
*$
.model Q2sa1512 PNP(Is=331f Xti=3 Eg=1.11 Vaf=33.48 Bf=240.7 Ise=3.039p
+               Ne=1.761 Ikf=1.02 Nk=.7043 Xtb=1.5 Var=100 Br=24.07 Isc=331f
+               Nc=1.54 Ikr=13.21 Rc=.4299 Cjc=88.43p Mjc=.5269 Vjc=.3905 Fc=.5
+               Cje=5p Mje=.3333 Vje=.75 Tr=10n Tf=1n Itf=1 Xtf=0 Vtf=10)
*$
.MODEL Q2SA1530 PNP IS=1.537E-9 BF=135.4 VAF=100 IKF=94.82E-3 ISE=1.544E-9
+ NE=1.998 BR=.1001 VAR=100 IKR=10.00E-3 ISC=1.537E-9 NK=.4995 CJC=7.255E-12
+ VJC=1.498 MJC=.6625 TF=1.262E-9 VTF=10 ITF=209.4 TR=10.00E-9
*$
.model Q2sa1531 PNP(Is=32.17p Xti=3 Eg=1.11 Vaf=100 Bf=383.2 Ise=32.18p
+               Ne=1.941 Ikf=87.13m Nk=.5764 Xtb=1.5 Var=100 Br=2 Isc=144.7p
+               Nc=2 Ikr=3.629 Rc=2.2 Cjc=19.32p Mjc=.5307 Vjc=1.129 Fc=.5
+               Cje=5p Mje=.3333 Vje=.75 Tr=10n Tf=614.3p Itf=3.39 Xtf=0 Vtf=10)
*$
.model Q2sa1532 PNP(Is=9.744f Xti=3 Eg=1.11 Vaf=100 Bf=70.95 Ise=271.2f
+               Ne=1.706 Ikf=.2425 Nk=.9334 Xtb=1.5 Var=100 Br=1 Isc=273.8p
+               Nc=1.938 Ikr=19.55 Rc=15.32 Cjc=4.63p Mjc=.268 Vjc=.4964 Fc=.5
+               Cje=5p Mje=.3333 Vje=.75 Tr=10n Tf=246.8p Itf=62.84m Xtf=7.012
+               Vtf=10)
*$
.model Q2sa1544 PNP(Is=45.75f Xti=3 Eg=1.11 Vaf=100 Bf=154.3 Ise=154.8f
+               Ne=1.541 Ikf=.5119 Nk=1.823 Xtb=1.5 Var=100 Br=1 Isc=801.9p
+               Nc=1.845 Ikr=6.939 Rc=3.313 Cjc=13.1p Mjc=.31 Vjc=.3905 Fc=.5
+               Cje=5p Mje=.3333 Vje=.75 Tr=10n Tf=564.2p Itf=5.893 Xtf=324.3u
+               Vtf=1)
*$
.model Q2sa1545 PNP(Is=45.75f Xti=3 Eg=1.11 Vaf=100 Bf=154.3 Ise=154.8f
+               Ne=1.541 Ikf=.5119 Nk=1.823 Xtb=1.5 Var=100 Br=1 Isc=801.9p
+               Nc=1.845 Ikr=6.939 Rc=3.313 Cjc=13.1p Mjc=.31 Vjc=.3905 Fc=.5
+               Cje=5p Mje=.3333 Vje=.75 Tr=10n Tf=564.2p Itf=5.893 Xtf=324.3u
+               Vtf=1)
*$
.model Q2SA1586 PNP(Is=295.1E-18 Xti=3 Eg=1.11 Vaf=100 Bf=186.5 Ise=295.1E-18
+               Ne=1.443 Ikf=2 Nk=1.794 Xtb=1.5 Var=100 Br=10 Isc=1.675f
+               Nc=1.482 Ikr=.6355 Rc=1.25 Cjc=9.716p Mjc=.3333 Vjc=.75 Fc=.5
+               Cje=5p Mje=.3333 Vje=.75 Tr=10n Tf=484.8p Itf=20.51 Xtf=149.7
+               Vtf=10)
*$
.model Q2SA1587 PNP(Is=1.563n Xti=3 Eg=1.11 Vaf=50.51 Bf=397.1 Ise=3.124n
+               Ne=3.715 Ikf=.1134 Nk=.5 Xtb=1.5 Var=100 Br=144.6 Isc=1.563n
+               Nc=.968 Ikr=37.69 Rc=2.286 Cjc=12.41p Mjc=.3447 Vjc=.5556 Fc=.5
+               Cje=5p Mje=.3333 Vje=.75 Tr=10n Tf=1.292n Itf=1 Xtf=0 Vtf=10)
*$
.model Q2SA1588 PNP(Is=295.1E-18 Xti=3 Eg=1.11 Vaf=100 Bf=152.9 Ise=34.67f
+               Ne=1.765 Ikf=3 Nk=.8068 Xtb=1.5 Var=100 Br=3.739 Isc=326.8E-18
+               Nc=1.228 Ikr=19.21 Rc=.4542 Cjc=27.04p Mjc=.3333 Vjc=.75 Fc=.5
+               Cje=5p Mje=.3333 Vje=.75 Tr=10n Tf=766.3p Itf=1 Xtf=0 Vtf=10)
*$
.MODEL Q2SA1602 PNP IS=1.537E-9 BF=207.5 VAF=100 IKF=1.555 ISE=2.615E-9
+ NE=1.998 BR=.1001 VAR=100 IKR=10.00E-3 ISC=1.537E-9 CJC=5.700E-12 VJC=1.500
+ MJC=.1001 TF=1.155E-9 VTF=10 ITF=264 TR=10.00E-9
*$
.MODEL Q2SA1603 PNP IS=1.537E-9 BF=135.4 VAF=100 IKF=94.82E-3 ISE=1.544E-9
+ NE=1.998 BR=.1001 VAR=100 IKR=10.00E-3 ISC=1.537E-9 NK=.4995 CJC=7.255E-12
+ VJC=1.498 MJC=.6625 TF=1.262E-9 VTF=10 ITF=209.4 TR=10.00E-9
*$
.model Q2sa1617 PNP(Is=8.031f Xti=3 Eg=1.11 Vaf=100 Bf=387.2 Ise=119.8f
+               Ne=2.477 Ikf=.1914 Nk=.344 Xtb=1.5 Var=100 Br=5.495 Isc=8.031f
+               Nc=1.116 Ikr=4.897 Rc=1.037 Cjc=8.016p Mjc=.3333 Vjc=.75 Fc=.5
+               Cje=5p Mje=.3333 Vje=.75 Tr=10n Tf=361p Itf=7.398 Xtf=0 Vtf=10)
*$
.model Q2sa1619 PNP(Is=2.02p Xti=3 Eg=1.11 Vaf=77.93 Bf=252.3 Ise=19.3p
+               Ne=1.616 Ikf=.1758 Nk=.4071 Xtb=1.5 Var=100 Br=3.635 Isc=2.566p
+               Nc=1.526 Ikr=12.79 Rc=.9019 Cjc=41.41p Mjc=.5222 Vjc=.3905
+               Fc=.5 Cje=5p Mje=.3333 Vje=.75 Tr=10n Tf=1n Itf=1 Xtf=0 Vtf=10)
*$
.MODEL Q2SA1626 PNP IS=2.223E-9 BF=110.3 VAF=100 IKF=.8269 ISE=2.223E-9
+ NE=1.572 BR=1.685 VAR=100 IKR=19.98 ISC=4.164E-6 NC=2.989 NK=.7777 RE=1 RB=2
+ RC=.2272 CJC=72.87E-12 MJC=.3333 TF=3.424E-9 XTF=10 VTF=10 ITF=1 TR=10.00E-9
*$
.MODEL Q2SA1627 PNP IS=4.255E-9 BF=106.7 VAF=100 IKF=.1633 ISE=26.58E-9
+ NE=1.998 BR=6.620 VAR=100 IKR=19.98 ISC=13.61E-6 NC=2.997 NK=.5836 RC=.8
+ CJC=150.2E-12 VJC=1.011 MJC=.5541 TF=7.482E-9 VTF=3.817 ITF=154.3 TR=17.50E-6
*$
.MODEL Q2SA1630 PNP IS=1.537E-9 BF=135.4 VAF=100 IKF=94.82E-3 ISE=1.544E-9
+ NE=1.998 BR=.1001 VAR=100 IKR=10.00E-3 ISC=1.537E-9 NK=.4995 CJC=7.255E-12
+ VJC=1.498 MJC=.6625 TF=1.262E-9 VTF=10 ITF=209.4 TR=10.00E-9
*$
.model Q2sa1666 PNP(Is=1.41f Xti=3 Eg=1.11 Vaf=100 Bf=81.78 Ise=2.657f Ne=1.283
+               Ikf=.2817 Nk=1.013 Xtb=1.5 Var=100 Br=1 Isc=2.943f Nc=1.788
+               Ikr=2.165 Rc=2.073 Cjc=3.133p Mjc=.1997 Vjc=.3905 Fc=.5 Cje=5p
+               Mje=.3333 Vje=.75 Tr=10n Tf=140.8p Itf=.1946 Xtf=1.292 Vtf=10)
*$
.model Q2sa1674 PNP(Is=70.49f Xti=3 Eg=1.11 Vaf=100 Bf=209 Ise=703.2f Ne=1.63
+               Ikf=3.643 Nk=1.159 Xtb=1.5 Var=100 Br=301 Isc=102.7f Nc=1.448
+               Ikr=7.007 Rc=17.85m Cjc=43.44p Mjc=.3701 Vjc=.5035 Fc=.5 Cje=5p
+               Mje=.3333 Vje=.75 Tr=10n Tf=2.133n Itf=1 Xtf=0 Vtf=10)
*$
.model Q2sa1737 PNP(Is=14.34f Xti=3 Eg=1.11 Vaf=100 Bf=145.4 Ise=204.3f
+               Ne=1.469 Ikf=23.08m Nk=.3031 Xtb=1.5 Var=100 Br=1 Isc=20.87f
+               Nc=1.716 Ikr=4.845 Rc=3.699 Cjc=6.575p Mjc=.267 Vjc=.3905 Fc=.5
+               Cje=5p Mje=.3333 Vje=.75 Tr=10n Tf=232.5p Itf=6.807 Xtf=2.802K
+               Vtf=10)
*$
.model Q2sa1738 PNP(Is=138.6E-18 Xti=3 Eg=1.11 Vaf=100 Bf=162 Ise=254E-18
+               Ne=1.242 Ikf=31.62m Nk=.6081 Xtb=1.5 Var=100 Br=1.8
+               Isc=927.6E-18 Nc=1.367 Ikr=.3773 Rc=8 Cjc=1.448p Mjc=.1454
+               Vjc=.3905 Fc=.5 Cje=5p Mje=.3333 Vje=.75 Tr=10n Tf=19.34p
+               Itf=14m Xtf=11.3 Vtf=10)
*$
.model Q2sa1739 PNP(Is=138.6E-18 Xti=3 Eg=1.11 Vaf=100 Bf=162 Ise=254E-18
+               Ne=1.242 Ikf=31.62m Nk=.6081 Xtb=1.5 Var=100 Br=1.8
+               Isc=927.6E-18 Nc=1.367 Ikr=.3773 Rc=8 Cjc=1.448p Mjc=.1454
+               Vjc=.3905 Fc=.5 Cje=5p Mje=.3333 Vje=.75 Tr=10n Tf=19.34p
+               Itf=14m Xtf=11.27 Vtf=10)
*$
.model Q2sa1747 PNP(Is=14.34f Xti=3 Eg=1.11 Vaf=100 Bf=341.8 Ise=107.9f Ne=1.89
+               Ikf=.1906 Nk=.5 Xtb=1.5 Var=100 Br=11.62 Isc=4.629p Nc=1.419
+               Ikr=.3649 Rc=2.618 Cjc=3.76p Mjc=.4031 Vjc=.9223 Fc=.5 Cje=5p
+               Mje=.3333 Vje=.75 Tr=10n Tf=434.9p Itf=2.67 Xtf=834.7 Vtf=10)
*$
.model Q2sa1748 PNP(Is=14.34f Xti=3 Eg=1.11 Vaf=100 Bf=341.8 Ise=107.9f Ne=1.89
+               Ikf=.1906 Nk=.5 Xtb=1.5 Var=100 Br=11.62 Isc=4.629p Nc=1.419
+               Ikr=.3649 Rc=2.618 Cjc=3.76p Mjc=.4031 Vjc=.9223 Fc=.5 Cje=5p
+               Mje=.3333 Vje=.75 Tr=10n Tf=434.9p Itf=2.67 Xtf=834.7 Vtf=10)
*$
.model Q2sa1767 PNP(Is=214.8f Xti=3 Eg=1.11 Vaf=100 Bf=124.3 Ise=358.8f
+               Ne=1.566 Ikf=.106 Nk=.1498 Xtb=1.5 Var=100 Br=7.734 Isc=14.38p
+               Nc=1.132 Ikr=3.467 Rc=1.666 Cjc=19.8p Mjc=.5072 Vjc=1.406 Fc=.5
+               Cje=5p Mje=.3333 Vje=.75 Tr=10n Tf=1n Itf=1 Xtf=0 Vtf=10)
*$
.model Q2sa1779 PNP(Is=67.34f Xti=3 Eg=1.11 Vaf=100 Bf=113.5 Ise=161.6f
+               Ne=1.361 Ikf=.2604 Nk=1.004 Xtb=1.5 Var=100 Br=1 Isc=0 Nc=2
+               Ikr=0 Rc=0 Cjc=7.032p Mjc=.3119 Vjc=.4997 Fc=.5 Cje=10.98p
+               Mje=.437 Vje=1.072 Tr=10n Tf=1n Itf=1 Xtf=0 Vtf=10)
*$
.model Q2sa1790 PNP(Is=9.744f Xti=3 Eg=1.11 Vaf=100 Bf=72.88 Ise=28.6f Ne=1.445
+               Ikf=.31 Nk=1.151 Xtb=1.5 Var=100 Br=1 Isc=145.9p Nc=1.778
+               Ikr=41.35 Rc=14.13 Cjc=4.547p Mjc=.2714 Vjc=.5532 Fc=.5 Cje=5p
+               Mje=.3333 Vje=.75 Tr=10n Tf=225.4p Itf=25.2m Xtf=3.802 Vtf=10)
*$
.model Q2sa1791 PNP(Is=14.34f Xti=3 Eg=1.11 Vaf=100 Bf=341.8 Ise=107.9f Ne=1.89
+               Ikf=.1906 Nk=.5 Xtb=1.5 Var=100 Br=11.62 Isc=4.629p Nc=1.419
+               Ikr=.3649 Rc=2.618 Cjc=3.76p Mjc=.4031 Vjc=.9223 Fc=.5 Cje=5p
+               Mje=.3333 Vje=.75 Tr=10n Tf=434.9p Itf=2.67 Xtf=834.7 Vtf=10)
*$
.model Q2sa562  PNP(Is=2.148p Xti=3 Eg=1.11 Vaf=100 Bf=162.9 Ise=5.013p
+               Ne=1.655 Ikf=.8773 Nk=.5629 Xtb=1.5 Var=100 Br=10.18 Isc=28.01p
+               Nc=1.288 Ikr=1.838 Rc=.4968 Cjc=27.04p Mjc=.3333 Vjc=.75 Fc=.5
+               Cje=5p Mje=.3333 Vje=.75 Tr=10n Tf=767.9p Itf=1 Xtf=0 Vtf=10)
*$
.model Q2SA564  PNP(Is=38.97f Xti=3 Eg=1.11 Vaf=87.03 Bf=290 Ise=6.72p Ne=2.293
+               Ikf=51.04m Nk=.3258 Xtb=1.5 Var=100 Br=3.5 Isc=43.61f Nc=1.624
+               Ikr=1.35 Rc=3.001 Cjc=7.332p Mjc=.3088 Vjc=.4467 Fc=.5 Cje=5p
+               Mje=.3333 Vje=.75 Tr=10n Tf=1.247n Itf=24.86 Xtf=2.574K Vtf=10)
*$
.model Q2sa564a PNP(Is=38.97f Xti=3 Eg=1.11 Vaf=87.03 Bf=290 Ise=6.72p Ne=2.293
+               Ikf=51.04m Nk=.3258 Xtb=1.5 Var=100 Br=3.5 Isc=43.61f Nc=1.624
+               Ikr=1.35 Rc=3.001 Cjc=7.332p Mjc=.3088 Vjc=.4467 Fc=.5 Cje=5p
+               Mje=.3333 Vje=.75 Tr=10n Tf=1.247n Itf=24.86 Xtf=2.574K Vtf=10)
*$
.model Q2sa673  PNP(Is=67.45f Xti=3 Eg=1.11 Vaf=100 Bf=344 Ise=112.9f Ne=1.25
+               Ikf=2.863 Nk=1.415 Xtb=1.5 Var=100 Br=11.28 Isc=213.6f Nc=1.538
+               Ikr=24.25m Rc=.3518 Cjc=25.63p Mjc=.3468 Vjc=.5189 Fc=.5
+               Cje=67.6p Mje=.4664 Vje=.8472 Tr=113.6n Tf=775.3p Itf=4.284
+               Xtf=53.98 Vtf=10)
*$
.model Q2sa673a PNP(Is=67.45f Xti=3 Eg=1.11 Vaf=100 Bf=344 Ise=112.9f Ne=1.25
+               Ikf=2.863 Nk=1.415 Xtb=1.5 Var=100 Br=11.28 Isc=213.6f Nc=1.538
+               Ikr=24.25m Rc=.3518 Cjc=25.63p Mjc=.3468 Vjc=.5189 Fc=.5
+               Cje=67.6p Mje=.4664 Vje=.8472 Tr=113.6n Tf=775.3p Itf=4.284
+               Xtf=53.98 Vtf=10)
*$
.model Q2sa719  PNP(Is=19.52f Xti=3 Eg=1.11 Vaf=100 Bf=150.9 Ise=20.62f
+               Ne=1.547 Ikf=5.51 Nk=1.135 Xtb=1.5 Var=100 Br=5 Isc=174.1f
+               Nc=1.616 Ikr=0 Rc=.5 Cjc=63.47p Mjc=.3461 Vjc=.3905 Fc=.5
+               Cje=5p Mje=.3333 Vje=.75 Tr=10n Tf=919.2p Itf=1 Xtf=0 Vtf=10)
*$
.model q2sa720  PNP(Is=19.52f Xti=3 Eg=1.11 Vaf=100 Bf=150.9 Ise=20.62f
+               Ne=1.547 Ikf=5.51 Nk=1.135 Xtb=1.5 Var=100 Br=5 Isc=174.1f
+               Nc=1.616 Ikr=0 Rc=.5 Cjc=63.47p Mjc=.3461 Vjc=.3905 Fc=.5
+               Cje=5p Mje=.3333 Vje=.75 Tr=10n Tf=919.2p Itf=1 Xtf=0 Vtf=10)
*$
.model Q2sa720a PNP(Is=19.52f Xti=3 Eg=1.11 Vaf=100 Bf=150.9 Ise=20.62f
+               Ne=1.547 Ikf=5.51 Nk=1.135 Xtb=1.5 Var=100 Br=5 Isc=174.1f
+               Nc=1.616 Ikr=0 Rc=.5 Cjc=63.47p Mjc=.3461 Vjc=.3905 Fc=.5
+               Cje=5p Mje=.3333 Vje=.75 Tr=10n Tf=1.914n Itf=1 Xtf=0 Vtf=10)
*$
.model Q2sa733  PNP(Is=20.75f Xti=3 Eg=1.11 Vaf=100 Bf=234.1 Ise=38.97f
+               Ne=1.431 Ikf=1 Nk=1.441 Xtb=1.5 Var=100 Br=2.348 Isc=30.75f
+               Nc=1.332 Ikr=9.084m Rc=.5715 Cjc=13.96p Mjc=.3512 Vjc=.3905
+               Fc=.5 Cje=5p Mje=.3333 Vje=.75 Tr=10n Tf=847.9p Itf=1 Xtf=0
+               Vtf=10)
*$
.model Q2sa777  PNP(Is=134.9f Xti=3 Eg=1.11 Vaf=100 Bf=150.6 Ise=134.9f
+               Ne=1.623 Ikf=5.52 Nk=1.134 Xtb=1.5 Var=100 Br=5 Isc=174.1f
+               Nc=1.616 Ikr=0 Rc=.5 Cjc=63.47p Mjc=.3461 Vjc=.3905 Fc=.5
+               Cje=5p Mje=.3333 Vje=.75 Tr=10n Tf=1.914n Itf=1 Xtf=0 Vtf=10)
*$
.model Q2sa781  PNP(Is=8.993f Xti=3 Eg=1.11 Vaf=100 Bf=131 Ise=38.35p Ne=1.878
+               Ikf=.1483 Nk=.8335 Xtb=1.5 Var=100 Br=8.783 Isc=11.63f Nc=1.412
+               Ikr=.8169 Rc=9.368 Cjc=6.661p Mjc=.3211 Vjc=.8309 Fc=.5
+               Cje=1.642p Mje=1.145 Vje=1.644 Tr=24.65n Tf=265.8p Itf=.5949
+               Xtf=2.581 Vtf=10)
*$
.MODEL Q2SA811A PNP IS=465.4E-15 BF=459.1 VAF=67.88 IKF=30.01E-3 ISE=465.4E-15