* Library of Japanese Diode Models

*  Copyright OrCAD, Inc. 1998 All Rights Reserved.

* $Revision:   1.7  $
* $Author:   RPEREZ  $
* $Date:   17 Apr 1998 15:17:00  $
*
* ---------------------------------------------------------------------------

* The parameters in this model library were derived from the data sheets for
* each part.  Most parts were characterized using the Parts option.
* ---------------------------------------------------------------------------
*
*$
.MODEL BZ-056 D RS=1.000E-3 CJO=1.000E-12 M=.3333 VJ=.75 ISR=7.539E-6 BV=5.009
+ IBV=43.11E-3 TT=144.3E-9
*$
.MODEL BZ-058 D RS=1.000E-3 CJO=1.000E-12 M=.3333 VJ=.75 ISR=7.539E-6 BV=5.827
+ IBV=86.22E-3 TT=144.3E-9
*$
.MODEL BZ-061 D RS=1.000E-3 CJO=1.000E-12 M=.3333 VJ=.75 ISR=6.485E-6 BV=6.140
+ IBV=.1437 TT=144.3E-9
*$
.MODEL BZ-063 D RS=1.000E-3 CJO=1.000E-12 M=.3333 VJ=.75 ISR=6.485E-6 BV=6.340
+ IBV=.1437 TT=144.3E-9
*$
.MODEL BZ-065 D RS=1.000E-3 CJO=1.000E-12 M=.3333 VJ=.75 ISR=6.485E-6 BV=6.540
+ IBV=.1437 TT=144.3E-9
*$
.MODEL BZ-067 D RS=1.000E-3 CJO=1.000E-12 M=.3333 VJ=.75 ISR=6.485E-6 BV=6.740
+ IBV=.1437 TT=144.3E-9
*$
.MODEL BZ-069 D RS=1.000E-3 CJO=1.000E-12 M=.3333 VJ=.75 ISR=6.485E-6 BV=6.940
+ IBV=.1437 TT=144.3E-9
*$
.MODEL BZ-071 D RS=1.000E-3 CJO=1.000E-12 M=.3333 VJ=.75 ISR=5.848E-6 BV=7.140
+ IBV=.1437 TT=144.3E-9
*$
.MODEL BZ-073 D RS=1.000E-3 CJO=1.000E-12 M=.3333 VJ=.75 ISR=5.848E-6 BV=7.340
+ IBV=.1437 TT=144.3E-9
*$
.MODEL BZ-075 D RS=1.000E-3 CJO=1.000E-12 M=.3333 VJ=.75 ISR=5.848E-6 BV=7.540
+ IBV=.1437 TT=144.3E-9
*$
.MODEL BZ-077 D RS=1.000E-3 CJO=1.000E-12 M=.3333 VJ=.75 ISR=5.405E-6 BV=7.740
+ IBV=.1437 TT=144.3E-9
*$
.MODEL BZ-079 D RS=1.000E-3 CJO=1.000E-12 M=.3333 VJ=.75 ISR=5.405E-6 BV=7.940
+ IBV=.1437 TT=144.3E-9
*$
.MODEL BZ-081 D RS=1.000E-3 CJO=1.000E-12 M=.3333 VJ=.75 ISR=5.405E-6 BV=8.140
+ IBV=.1437 TT=144.3E-9
*$
.MODEL BZ-083 D RS=1.000E-3 CJO=1.000E-12 M=.3333 VJ=.75 ISR=5.405E-6 BV=8.340
+ IBV=.1437 TT=144.3E-9
*$
.MODEL BZ-085 D RS=1.000E-3 CJO=1.000E-12 M=.3333 VJ=.75 ISR=5.405E-6 BV=8.540
+ IBV=.1437 TT=144.3E-9
*$
.MODEL BZ-088 D RS=1.000E-3 CJO=1.000E-12 M=.3333 VJ=.75 ISR=5.072E-6 BV=8.840
+ IBV=.1437 TT=144.3E-9
*$
.MODEL BZ-090 D RS=1.000E-3 CJO=1.000E-12 M=.3333 VJ=.75 ISR=5.072E-6 BV=9.040
+ IBV=.1437 TT=144.3E-9
*$
.MODEL BZ-092 D RS=1.000E-3 CJO=1.000E-12 M=.3333 VJ=.75 ISR=5.072E-6 BV=9.240
+ IBV=.1437 TT=144.3E-9
*$
.MODEL BZ-094 D RS=1.000E-3 CJO=1.000E-12 M=.3333 VJ=.75 ISR=5.072E-6 BV=9.440
+ IBV=.1437 TT=144.3E-9
*$
.MODEL BZ-096 D RS=1.000E-3 CJO=1.000E-12 M=.3333 VJ=.75 ISR=4.591E-6 BV=9.637
+ IBV=.1232 TT=144.3E-9
*$
.MODEL BZ-098 D RS=1.000E-3 CJO=1.000E-12 M=.3333 VJ=.75 ISR=4.591E-6 BV=9.837
+ IBV=.1232 TT=144.3E-9
*$
.MODEL BZ-100 D RS=1.000E-3 CJO=1.000E-12 M=.3333 VJ=.75 ISR=4.591E-6 BV=10.04
+ IBV=.1232 TT=144.3E-9
*$
.MODEL BZ-105 D RS=1.000E-3 CJO=1.000E-12 M=.3333 VJ=.75 ISR=4.591E-6 BV=10.55
+ IBV=.1617 TT=144.3E-9
*$
.MODEL BZ-110 D RS=1.000E-3 CJO=1.000E-12 M=.3333 VJ=.75 ISR=4.253E-6 BV=11.05
+ IBV=.1617 TT=144.3E-9
*$
.MODEL BZ-115 D RS=1.000E-3 CJO=1.000E-12 M=.3333 VJ=.75 ISR=4.253E-6 BV=11.55
+ IBV=.1617 TT=144.3E-9
*$
.MODEL BZ-120 D RS=1.000E-3 CJO=1.000E-12 M=.3333 VJ=.75 ISR=4.117E-6 BV=12.05
+ IBV=.1437 TT=144.3E-9
*$
.MODEL BZ-125 D RS=1.000E-3 CJO=1.000E-12 M=.3333 VJ=.75 ISR=4.117E-6 BV=12.55
+ IBV=.1437 TT=144.3E-9
*$
.MODEL BZ-130 D RS=1.000E-3 CJO=1.000E-12 M=.3333 VJ=.75 ISR=3.997E-6 BV=13.05
+ IBV=.1293 TT=144.3E-9
*$
.MODEL BZ-135 D RS=1.000E-3 CJO=1.000E-12 M=.3333 VJ=.75 ISR=3.997E-6 BV=13.55
+ IBV=.1293 TT=144.3E-9
*$
.MODEL BZ-140 D RS=1.000E-3 CJO=1.000E-12 M=.3333 VJ=.75 ISR=3.997E-6 BV=14.04
+ IBV=.1078 TT=144.3E-9
*$
.MODEL BZ-145 D RS=1.000E-3 CJO=1.000E-12 M=.3333 VJ=.75 ISR=3.997E-6 BV=14.54
+ IBV=.1078 TT=144.3E-9
*$
.MODEL BZ-150 D RS=1.000E-3 CJO=1.000E-12 M=.3333 VJ=.75 ISR=3.889E-6 BV=15.04
+ IBV=92.38E-3 TT=144.3E-9
*$
.MODEL BZ-157 D RS=1.000E-3 CJO=1.000E-12 M=.3333 VJ=.75 ISR=3.705E-6 BV=15.74
+ IBV=80.83E-3 TT=144.3E-9
*$
.MODEL BZ-162 D RS=1.000E-3 CJO=1.000E-12 M=.3333 VJ=.75 ISR=3.705E-6 BV=16.24
+ IBV=80.83E-3 TT=144.3E-9
*$
.MODEL BZ-167 D RS=1.000E-3 CJO=1.000E-12 M=.3333 VJ=.75 ISR=3.705E-6 BV=16.73
+ IBV=71.85E-3 TT=144.3E-9
*$
.MODEL BZ-172 D RS=1.000E-3 CJO=1.000E-12 M=.3333 VJ=.75 ISR=3.705E-6 BV=17.23
+ IBV=71.85E-3 TT=144.3E-9
*$
.MODEL BZ-177 D RS=1.000E-3 CJO=1.000E-12 M=.3333 VJ=.75 ISR=3.625E-6 BV=17.73
+ IBV=64.66E-3 TT=144.3E-9
*$
.MODEL BZ-182 D RS=1.000E-3 CJO=1.000E-12 M=.3333 VJ=.75 ISR=3.625E-6 BV=18.23
+ IBV=64.66E-3 TT=144.3E-9
*$
.MODEL BZ-187 D RS=1.000E-3 CJO=1.000E-12 M=.3333 VJ=.75 ISR=3.551E-6 BV=18.73
+ IBV=64.66E-3 TT=144.3E-9
*$
.MODEL BZ-192 D RS=1.000E-3 CJO=1.000E-12 M=.3333 VJ=.75 ISR=3.551E-6 BV=19.23
+ IBV=64.66E-3 TT=144.3E-9
*$
.MODEL BZ-197 D RS=1.000E-3 CJO=1.000E-12 M=.3333 VJ=.75 ISR=3.483E-6 BV=19.73
+ IBV=64.66E-3 TT=144.3E-9
*$
.MODEL BZ-210 D RS=1.000E-3 CJO=1.000E-12 M=.3333 VJ=.75 ISR=3.420E-6 BV=21.06
+ IBV=.1176 TT=144.3E-9
*$
.MODEL BZ-220 D RS=1.000E-3 CJO=1.000E-12 M=.3333 VJ=.75 ISR=3.362E-6 BV=22.06
+ IBV=.1125 TT=144.3E-9
*$
.MODEL BZ-230 D RS=1.000E-3 CJO=1.000E-12 M=.3333 VJ=.75 ISR=3.307E-6 BV=23.06
+ IBV=.1078 TT=144.3E-9
*$
.MODEL BZ-240 D RS=1.000E-3 CJO=1.000E-12 M=.3333 VJ=.75 ISR=3.255E-6 BV=24.06
+ IBV=.1035 TT=144.3E-9
*$
.MODEL BZ-250 D RS=1.000E-3 CJO=1.000E-12 M=.3333 VJ=.75 ISR=3.255E-6 BV=25.06
+ IBV=99.48E-3 TT=144.3E-9
*$
.MODEL BZ-260 D RS=1.000E-3 CJO=1.000E-12 M=.3333 VJ=.75 ISR=3.207E-6 BV=26.06
+ IBV=92.38E-3 TT=144.3E-9
*$
.MODEL BZ-270 D RS=1.000E-3 CJO=1.000E-12 M=.3333 VJ=.75 ISR=3.161E-6 BV=27.06
+ IBV=86.22E-3 TT=144.3E-9
*$
.MODEL BZ-280 D RS=1.000E-3 CJO=1.000E-12 M=.3333 VJ=.75 ISR=3.118E-6 BV=28.05
+ IBV=83.44E-3 TT=144.3E-9
*$
.MODEL BZ-290 D RS=1.000E-3 CJO=1.000E-12 M=.3333 VJ=.75 ISR=3.077E-6 BV=29.05
+ IBV=78.38E-3 TT=144.3E-9
*$
.MODEL BZ-300 D RS=1.000E-3 CJO=1.000E-12 M=.3333 VJ=.75 ISR=3.077E-6 BV=30.05
+ IBV=73.90E-3 TT=144.3E-9
*$
.model D02bz2_2 D(Is=10.01E-21 N=1.962 Rs=1.603 Ikf=11.45m Xti=3 Eg=1.11 Cjo=1p
+               M=.3333 Vj=.75 Fc=.5 Isr=7.539u Nr=2 Bv=2.188 Ibv=11.84m
+               Tt=14.43n)
*$
.model D02bz2_7 D(Is=10.01E-21 N=2.487 Rs=2.634 Ikf=29.19 Xti=3 Eg=1.11 Cjo=1p
+               M=.3333 Vj=.75 Fc=.5 Isr=3.769u Nr=2 Bv=2.673 Ibv=9.674m
+               Tt=14.43n)
*$
.model D02bz3_3 D(Is=10.01E-21 N=3.085 Rs=.3718 Ikf=5.954 Xti=3 Eg=1.11 Cjo=1p
+               M=.3333 Vj=.75 Fc=.5 Isr=753.9n Nr=2 Bv=3.29 Ibv=7.846m
+               Tt=14.43n)
*$
.model D02bz3_9 D(Is=10.01E-21 N=3.612 Rs=6.124m Ikf=13.56 Xti=3 Eg=1.11 Cjo=1p
+               M=.3333 Vj=.75 Fc=.5 Isr=753.9n Nr=2 Bv=3.889 Ibv=6.632m
+               Tt=14.43n)
*$
.model D02bz4_7 D(Is=10.01E-21 N=2.174 Rs=1.105 Ikf=10E-21 Xti=3 Eg=1.11 Cjo=1p
+               M=.3333 Vj=.75 Fc=.5 Isr=753.9n Nr=2 Bv=4.674 Ibv=5.516m
+               Tt=14.43n)
*$
.model D02CZ10  D(Is=9.149p N=1.461 Rs=.347 Ikf=28.61 Xti=3 Eg=1.11 Cjo=402.8p
+               M=1.533 Vj=5 Fc=.5 Isr=115.5n Nr=2 Bv=10.14 Ibv=1.416 Tt=5n)
*$
.model D02CZ11  D(Is=9.149p N=1.461 Rs=.347 Ikf=28.61 Xti=3 Eg=1.11 Cjo=402.8p
+               M=1.533 Vj=5 Fc=.5 Isr=109.1n Nr=2 Bv=11.14 Ibv=1.416 Tt=5n)
*$
.model D02CZ12  D(Is=9.149p N=1.461 Rs=.347 Ikf=28.61 Xti=3 Eg=1.11 Cjo=402.8p
+               M=1.533 Vj=5 Fc=.5 Isr=103.1n Nr=2 Bv=12.15 Ibv=1.95 Tt=5n)
*$
.model D02CZ13  D(Is=9.149p N=1.461 Rs=.347 Ikf=28.61 Xti=3 Eg=1.11 Cjo=402.8p
+               M=1.533 Vj=5 Fc=.5 Isr=92.8n Nr=2 Bv=13.15 Ibv=1.95 Tt=5n)
*$
.model D02CZ15  D(Is=9.149p N=1.461 Rs=.347 Ikf=28.61 Xti=3 Eg=1.11 Cjo=402.8p
+               M=1.533 Vj=5 Fc=.5 Isr=84.06n Nr=2 Bv=15.15 Ibv=1.95 Tt=5n)
*$
.model D02CZ16  D(Is=9.149p N=1.461 Rs=.347 Ikf=28.61 Xti=3 Eg=1.11 Cjo=402.8p
+               M=1.533 Vj=5 Fc=.5 Isr=76.61n Nr=2 Bv=16.15 Ibv=1.95 Tt=5n)
*$
.model D02CZ18  D(Is=51.85f N=1.17 Rs=.3181 Ikf=19.19 Xti=3 Eg=1.11 Cjo=402.8p
+               M=1.533 Vj=5 Fc=.5 Isr=990u Nr=2 Bv=18.14 Ibv=1.405 Tt=5n)
*$
.model D02CZ20  D(Is=51.85f N=1.17 Rs=.3181 Ikf=19.19 Xti=3 Eg=1.11 Cjo=402.8p
+               M=1.533 Vj=5 Fc=.5 Isr=990u Nr=2 Bv=20.14 Ibv=1.105 Tt=5n)
*$
.model D02CZ22  D(Is=51.85f N=1.17 Rs=.3181 Ikf=19.19 Xti=3 Eg=1.11 Cjo=402.8p
+               M=1.533 Vj=5 Fc=.5 Isr=990u Nr=2 Bv=22.13 Ibv=.9104 Tt=5n)
*$
.model D02CZ24  D(Is=51.85f N=1.17 Rs=.3181 Ikf=19.19 Xti=3 Eg=1.11 Cjo=402.8p
+               M=1.533 Vj=5 Fc=.5 Isr=990u Nr=2 Bv=24.13 Ibv=.6734 Tt=5n)
*$
.MODEL D02CZ27 D RS=1.000E-3 CJO=356.7E-12 M=2.159 VJ=10 ISR=239.4E-6 NR=3.743
+ BV=27.12 IBV=.1847 TT=5.000E-9
*$
.model d02cz2_0 D(Is=9.086p N=1.395 Rs=0 Ikf=.11 Xti=3 Eg=1.11 Cjo=406.2p
+               M=1.548 Vj=5 Fc=.5 Isr=90.25u Nr=2 Bv=2.094 Ibv=86.21m Tt=5n)
*$
.model D02cz2_2 D(Is=9.086p N=1.395 Rs=0 Ikf=.11 Xti=3 Eg=1.11 Cjo=406.2p
+               M=1.548 Vj=5 Fc=.5 Isr=90.25u Nr=2 Bv=2.297 Ibv=79.58m Tt=5n)
*$
.model D02cz2_4 D(Is=9.086p N=1.395 Rs=0 Ikf=.11 Xti=3 Eg=1.11 Cjo=406.2p
+               M=1.548 Vj=5 Fc=.5 Isr=90.25u Nr=2 Bv=2.52 Ibv=73.9m Tt=5n)
*$
.model D02cz2_7 D(Is=9.086p N=1.395 Rs=0 Ikf=.11 Xti=3 Eg=1.11 Cjo=406.2p
+               M=1.548 Vj=5 Fc=.5 Isr=37.61u Nr=2 Bv=2.761 Ibv=64.66m Tt=5n)
*$
.MODEL D02CZ30 D RS=1.000E-3 CJO=356.7E-12 M=2.159 VJ=10 ISR=171.1E-6 NR=4.995
+ BV=30.11 IBV=.1617 TT=5.000E-9
*$
.MODEL D02CZ33 D RS=1.000E-3 CJO=328.5E-12 M=1.901 VJ=10 ISR=46.20E-9 BV=33.11
+ IBV=.1617 TT=4.328E-9
*$
.MODEL D02CZ36 D RS=1.000E-3 CJO=356.7E-12 M=2.159 VJ=10 ISR=107.1E-6 NR=2.747
+ BV=36.11 IBV=.1437 TT=5.000E-9
*$
.MODEL D02CZ39 D IS=21.67E-12 N=1.492 RS=1.000E-3 IKF=.1177 CJO=356.7E-12
+ M=2.159 VJ=10 ISR=14.63E-6 NR=2.852 BV=36.11 IBV=.1437 TT=5.000E-9
*$
.model D02cz3_0 D(Is=9.086p N=1.395 Rs=0 Ikf=.11 Xti=3 Eg=1.11 Cjo=406.2p
+               M=1.548 Vj=5 Fc=.5 Isr=15.04u Nr=2 Bv=3.03 Ibv=60.86m Tt=5n)
*$
.model D02cz3_3 D(Is=9.086p N=1.395 Rs=0 Ikf=.11 Xti=3 Eg=1.11 Cjo=406.2p
+               M=1.548 Vj=5 Fc=.5 Isr=7.521u Nr=2 Bv=3.328 Ibv=57.48m Tt=5n)
*$
.model D02cz3_6 D(Is=9.086p N=1.395 Rs=0 Ikf=.11 Xti=3 Eg=1.11 Cjo=406.2p
+               M=1.548 Vj=5 Fc=.5 Isr=7.521u Nr=2 Bv=3.658 Ibv=57.48m Tt=5n)
*$
.model D02cz3_9 D(Is=9.086p N=1.395 Rs=0 Ikf=.11 Xti=3 Eg=1.11 Cjo=406.2p
+               M=1.548 Vj=5 Fc=.5 Isr=7.521u Nr=2 Bv=4.02 Ibv=60.86m Tt=5n)
*$
.model D02cz4_3 D(Is=9.086p N=1.395 Rs=0 Ikf=.11 Xti=3 Eg=1.11 Cjo=406.2p
+               M=1.548 Vj=5 Fc=.5 Isr=3.761u Nr=2 Bv=4.421 Ibv=64.66m Tt=5n)
*$
.model D02cz4_7 D(Is=9.086p N=1.395 Rs=0 Ikf=.11 Xti=3 Eg=1.11 Cjo=406.2p
+               M=1.548 Vj=5 Fc=.5 Isr=3.761u Nr=2 Bv=4.729 Ibv=86.21m Tt=5n)
*$
.model D02cz5_1 D(Is=9.086p N=1.395 Rs=0 Ikf=.11 Xti=3 Eg=1.11 Cjo=406.2p
+               M=1.548 Vj=5 Fc=.5 Isr=664.7n Nr=2 Bv=5.198 Ibv=.1478 Tt=5n)
*$
.model D02cz5_6 D(Is=1.657n N=1.861 Rs=.1142 Ikf=99.31 Xti=3 Eg=1.11 Cjo=406.2p
+               M=1.548 Vj=5 Fc=.5 Isr=591.9n Nr=2 Bv=5.729 Ibv=.3475 Tt=5n)
*$
.model D02CZ6_2 D(Is=4.888p N=1.348 Rs=97.9m Ikf=33.37m Xti=3 Eg=1.11
+               Cjo=402.8p M=1.533 Vj=5 Fc=.5 Isr=485.9n Nr=2 Bv=6.216
+               Ibv=.6545 Tt=5n)
*$
.model D02CZ6_8 D(Is=3.669p N=1.348 Rs=97.9m Ikf=33.37m Xti=3 Eg=1.11
+               Cjo=402.8p M=1.533 Vj=5 Fc=.5 Isr=172.7n Nr=2 Bv=6.929
+               Ibv=.7495 Tt=5n)
*$
.model D02CZ7_5 D(Is=2.754p N=1.348 Rs=97.9m Ikf=33.37m Xti=3 Eg=1.11
+               Cjo=402.8p M=1.533 Vj=5 Fc=.5 Isr=149.2n Nr=2 Bv=7.633
+               Ibv=.8764 Tt=5n)
*$
.model D02CZ8_2 D(Is=2.067p N=1.348 Rs=97.9m Ikf=33.37m Xti=3 Eg=1.11
+               Cjo=402.8p M=1.533 Vj=5 Fc=.5 Isr=139.4n Nr=2 Bv=8.338
+               Ibv=1.055 Tt=5n)
*$
.model D02CZ9_1 D(Is=2.067p N=1.348 Rs=97.9m Ikf=33.37m Xti=3 Eg=1.11
+               Cjo=402.8p M=1.533 Vj=5 Fc=.5 Isr=130.6n Nr=2 Bv=9.244
+               Ibv=1.326 Tt=5n)
*$
.MODEL D04AZ10 D RS=1.000E-3 CJO=1.000E-12 M=.3333 VJ=.75 ISR=91.83E-9 BV=10.10
+ IBV=.2587 TT=5.000E-9
*$
.MODEL D04AZ11 D RS=1.000E-3 CJO=1.000E-12 M=.3333 VJ=.75 ISR=88.19E-9 BV=11.10
+ IBV=.2587 TT=5.000E-9
*$
.MODEL D04AZ12 D RS=1.000E-3 CJO=1.000E-12 M=.3333 VJ=.75 ISR=85.06E-9 BV=12.10
+ IBV=.2069 TT=5.000E-9
*$
.MODEL D04AZ13 D RS=1.000E-3 CJO=1.000E-12 M=.3333 VJ=.75 ISR=82.34E-9 BV=13.10
+ IBV=.2069 TT=5.000E-9
*$
.MODEL D04AZ15 D RS=1.000E-3 CJO=1.000E-12 M=.3333 VJ=.75 ISR=79.94E-9 BV=15.10
+ IBV=.2069 TT=5.000E-9
*$
.MODEL D04AZ16 D RS=1.000E-3 CJO=1.000E-12 M=.3333 VJ=.75 ISR=77.79E-9 BV=16.10
+ IBV=.2069 TT=5.000E-9
*$
.MODEL D04AZ18 D RS=1.000E-3 CJO=1.000E-12 M=.3333 VJ=.75 ISR=75.86E-9 BV=18.09
+ IBV=.1724 TT=5.000E-9
*$
.MODEL D04AZ20 D RS=1.000E-3 CJO=1.000E-12 M=.3333 VJ=.75 ISR=72.50E-9 BV=20.09
+ IBV=.1724 TT=5.000E-9
*$
.MODEL D04AZ22 D RS=1.000E-3 CJO=1.000E-12 M=.3333 VJ=.75 ISR=69.67E-9 BV=22.09
+ IBV=.1724 TT=5.000E-9
*$
.MODEL D04AZ24 D RS=1.000E-3 CJO=1.000E-12 M=.3333 VJ=.75 ISR=67.23E-9 BV=24.09
+ IBV=.1478 TT=5.000E-9
*$
.MODEL D04AZ27 D RS=1.000E-3 CJO=1.000E-12 M=.3333 VJ=.75 ISR=65.10E-9 BV=27.08
+ IBV=.115 TT=5.000E-9
*$
.MODEL D04AZ2_0 D RS=1.000E-3 CJO=1.000E-12 M=.3333 VJ=.75 ISR=101.2E-6
+ BV=2.060 IBV=51.73E-3 TT=5.000E-9
*$
.MODEL D04AZ2_2 D RS=1.000E-3 CJO=1.000E-12 M=.3333 VJ=.75 ISR=96.31E-6
+ BV=2.260 IBV=51.73E-3 TT=5.000E-9
*$
.MODEL D04AZ2_4 D RS=1.000E-3 CJO=1.000E-12 M=.3333 VJ=.75 ISR=90.46E-6
+ BV=2.460 IBV=51.73E-3 TT=5.000E-9
*$
.MODEL D04AZ2_7 D RS=1.000E-3 CJO=1.000E-12 M=.3333 VJ=.75 ISR=75.39E-6
+ BV=2.760 IBV=51.73E-3 TT=5.000E-9
*$
.MODEL D04AZ30 D RS=1.000E-3 CJO=1.000E-12 M=.3333 VJ=.75 ISR=63.22E-9 BV=30.08
+ IBV=94.05E-3 TT=5.000E-9
*$
.MODEL D04AZ33 D RS=1.000E-3 CJO=1.000E-12 M=.3333 VJ=.75 ISR=61.54E-9 BV=33.07
+ IBV=79.58E-3 TT=5.000E-9
*$
.MODEL D04AZ36 D RS=1.000E-3 CJO=1.000E-12 M=.3333 VJ=.75 ISR=60.03E-9 BV=36.07
+ IBV=68.97E-3 TT=5.000E-9
*$
.MODEL D04AZ39 D RS=1.000E-3 CJO=1.000E-12 M=.3333 VJ=.75 ISR=58.01E-9 BV=39.06
+ IBV=60.86E-3 TT=5.000E-9
*$
.MODEL D04AZ3_0 D RS=1.000E-3 CJO=1.000E-12 M=.3333 VJ=.75 ISR=37.69E-6
+ BV=3.060 IBV=51.73E-3 TT=5.000E-9
*$
.MODEL D04AZ3_3 D RS=1.000E-3 CJO=1.000E-12 M=.3333 VJ=.75 ISR=15.08E-6
+ BV=3.360 IBV=51.73E-3 TT=5.000E-9
*$
.MODEL D04AZ3_6 D RS=1.000E-3 CJO=1.000E-12 M=.3333 VJ=.75 ISR=7.539E-6
+ BV=3.660 IBV=51.73E-3 TT=5.000E-9
*$
.MODEL D04AZ3_9 D RS=1.000E-3 CJO=1.000E-12 M=.3333 VJ=.75 ISR=3.769E-6
+ BV=3.960 IBV=51.73E-3 TT=5.000E-9
*$
.MODEL D04AZ4_3 D RS=1.000E-3 CJO=1.000E-12 M=.3333 VJ=.75 ISR=3.769E-6
+ BV=4.360 IBV=51.73E-3 TT=5.000E-9
*$
.MODEL D04AZ4_7 D RS=1.000E-3 CJO=1.000E-12 M=.3333 VJ=.75 ISR=3.769E-6
+ BV=4.766 IBV=64.66E-3 TT=5.000E-9
*$
.MODEL D04AZ5_1 D RS=1.000E-3 CJO=1.000E-12 M=.3333 VJ=.75 ISR=3.467E-6
+ BV=5.174 IBV=86.22E-3 TT=5.000E-9
*$
.MODEL D04AZ5_6 D RS=1.000E-3 CJO=1.000E-12 M=.3333 VJ=.75 ISR=3.067E-6
+ BV=5.684 IBV=.1293 TT=5.000E-9
*$
.MODEL D04AZ6_2 D RS=1.000E-3 CJO=1.000E-12 M=.3333 VJ=.75 ISR=2.924E-6
+ BV=6.292 IBV=.1724 TT=5.000E-9
*$
.MODEL D04AZ6_8 D RS=1.000E-3 CJO=1.000E-12 M=.3333 VJ=.75 ISR=1.122E-6
+ BV=6.896 IBV=.2069 TT=5.000E-9
*$
.MODEL D04AZ7_5 D RS=1.000E-3 CJO=1.000E-12 M=.3333 VJ=.75 ISR=270.3E-9
+ BV=7.596 IBV=.2069 TT=5.000E-9
*$
.MODEL D04AZ8_2 D RS=1.000E-3 CJO=1.000E-12 M=.3333 VJ=.75 ISR=253.6E-9
+ BV=8.302 IBV=.2587 TT=5.000E-9
*$
.MODEL D04AZ9_1 D RS=1.000E-3 CJO=1.000E-12 M=.3333 VJ=.75 ISR=240.4E-9
+ BV=9.202 IBV=.2587 TT=5.000E-9
*$
.MODEL D05AZ10 D RS=1.000E-3 CJO=1.000E-12 M=.3333 VJ=.75 ISR=229.6E-9 BV=10.05
+ IBV=.1617 TT=5.000E-9
*$
.MODEL D05AZ100 D RS=1.000E-3 CJO=1.000E-12 M=.3333 VJ=.75 ISR=42.77E-9
+ BV=100.1 IBV=32.33E-3 TT=5.000E-9
*$
.MODEL D05AZ11 D RS=1.000E-3 CJO=1.000E-12 M=.3333 VJ=.75 ISR=88.19E-6 BV=11.08
+ IBV=.2587 TT=5.000E-9
*$
.MODEL D05AZ12 D RS=1.000E-3 CJO=1.000E-12 M=.3333 VJ=.75 ISR=85.06E-9 BV=12.08
+ IBV=.2156 TT=5.000E-9
*$
.MODEL D05AZ13 D RS=1.000E-3 CJO=1.000E-12 M=.3333 VJ=.75 ISR=82.34E-9 BV=13.08
+ IBV=.1848 TT=5.000E-9
*$
.MODEL D05AZ15 D RS=1.000E-3 CJO=1.000E-12 M=.3333 VJ=.75 ISR=79.94E-9 BV=15.07
+ IBV=.1617 TT=5.000E-9
*$
.MODEL D05AZ16 D RS=1.000E-3 CJO=1.000E-12 M=.3333 VJ=.75 ISR=77.79E-9 BV=16.07
+ IBV=.1437 TT=5.000E-9
*$
.MODEL D05AZ18 D RS=1.000E-3 CJO=1.000E-12 M=.3333 VJ=.75 ISR=75.86E-9 BV=18.06
+ IBV=.1125 TT=5.000E-9
*$
.MODEL D05AZ20 D RS=1.000E-3 CJO=1.000E-12 M=.3333 VJ=.75 ISR=72.50E-9 BV=20.06
+ IBV=92.38E-3 TT=5.000E-9
*$
.MODEL D05AZ22 D RS=1.000E-3 CJO=1.000E-12 M=.3333 VJ=.75 ISR=69.67E-9 BV=22.09
+ IBV=.1724 TT=5.000E-9
*$
.MODEL D05AZ24 D RS=1.000E-3 CJO=1.000E-12 M=.3333 VJ=.75 ISR=67.23E-9 BV=24.09
+ IBV=.1478 TT=5.000E-9
*$
.MODEL D05AZ27 D RS=1.000E-3 CJO=1.000E-12 M=.3333 VJ=.75 ISR=65.10E-9 BV=27.08
+ IBV=.115 TT=5.000E-9
*$
.MODEL D05AZ2_0 D RS=1.000E-3 CJO=1.000E-12 M=.3333 VJ=.75 ISR=101.2E-6
+ BV=1.980 IBV=9.237E-3 TT=5.000E-9
*$
.MODEL D05AZ30 D RS=1.000E-3 CJO=1.000E-12 M=.3333 VJ=.75 ISR=63.22E-9 BV=30.08
+ IBV=94.05E-3 TT=5.000E-9
*$
.MODEL D05AZ33 D RS=1.000E-3 CJO=1.000E-12 M=.3333 VJ=.75 ISR=61.54E-9 BV=33.07
+ IBV=79.58E-3 TT=5.000E-9
*$
.MODEL D05AZ36 D RS=1.000E-3 CJO=1.000E-12 M=.3333 VJ=.75 ISR=60.03E-9 BV=36.07
+ IBV=68.97E-3 TT=5.000E-9
*$
.MODEL D05AZ39 D RS=1.000E-3 CJO=1.000E-12 M=.3333 VJ=.75 ISR=58.01E-9 BV=39.06
+ IBV=60.86E-3 TT=5.000E-9
*$
.MODEL D05AZ3_0 D RS=1.000E-3 CJO=1.000E-12 M=.3333 VJ=.75 ISR=37.69E-6
+ BV=2.994 IBV=16.17E-3 TT=5.000E-9
*$
.MODEL D05AZ3_3 D RS=1.000E-3 CJO=1.000E-12 M=.3333 VJ=.75 ISR=15.08E-6
+ BV=3.298 IBV=18.47E-3 TT=5.000E-9
*$
.MODEL D05AZ3_6 D RS=1.000E-3 CJO=1.000E-12 M=.3333 VJ=.75 ISR=7.539E-6
+ BV=3.602 IBV=21.55E-3 TT=5.000E-9
*$
.MODEL D05AZ3_9 D RS=1.000E-3 CJO=1.000E-12 M=.3333 VJ=.75 ISR=3.769E-6
+ BV=3.907 IBV=25.86E-3 TT=5.000E-9
*$
.MODEL D05AZ43 D RS=1.000E-3 CJO=1.000E-12 M=.3333 VJ=.75 ISR=56.24E-9 BV=43.06
+ IBV=57.48E-3 TT=5.000E-9
*$
.MODEL D05AZ47 D RS=1.000E-3 CJO=1.000E-12 M=.3333 VJ=.75 ISR=54.66E-9 BV=47.06
+ IBV=57.48E-3 TT=5.000E-9
*$
.MODEL D05AZ4_3 D RS=1.000E-3 CJO=1.000E-12 M=.3333 VJ=.75 ISR=3.769E-6
+ BV=4.312 IBV=32.33E-3 TT=5.000E-9
*$
.MODEL D05AZ4_7 D RS=1.000E-3 CJO=1.000E-12 M=.3333 VJ=.75 ISR=3.769E-6
+ BV=4.725 IBV=51.73E-3 TT=5.000E-9
*$
.MODEL D05AZ51 D RS=1.000E-3 CJO=1.000E-12 M=.3333 VJ=.75 ISR=53.25E-9 BV=51.06
+ IBV=47.03E-3 TT=5.000E-9
*$
.MODEL D05AZ56 D RS=1.000E-3 CJO=1.000E-12 M=.3333 VJ=.75 ISR=51.58E-9 BV=56.06
+ IBV=47.03E-3 TT=5.000E-9
*$
.MODEL D05AZ5_1 D RS=1.000E-3 CJO=1.000E-12 M=.3333 VJ=.75 ISR=3.467E-6
+ BV=5.130 IBV=64.66E-3 TT=5.000E-9
*$
.MODEL D05AZ5_6 D RS=1.000E-3 CJO=1.000E-12 M=.3333 VJ=.75 ISR=3.067E-6
+ BV=5.641 IBV=99.49E-3 TT=5.000E-9
*$
.MODEL D05AZ62 D RS=1.000E-3 CJO=1.000E-12 M=.3333 VJ=.75 ISR=50.09E-9 BV=62.09
+ IBV=64.66E-3 TT=5.000E-9
*$
.MODEL D05AZ68 D RS=1.000E-3 CJO=1.000E-12 M=.3333 VJ=.75 ISR=48.46E-9 BV=68.09
+ IBV=64.66E-3 TT=5.000E-9
*$
.MODEL D05AZ6_2 D RS=1.000E-3 CJO=1.000E-12 M=.3333 VJ=.75 ISR=2.924E-6
+ BV=6.248 IBV=.1293 TT=5.000E-9
*$
.MODEL D05AZ6_8 D RS=1.000E-3 CJO=1.000E-12 M=.3333 VJ=.75 ISR=1.122E-6
+ BV=6.854 IBV=.1617 TT=5.000E-9
*$
.MODEL D05AZ75 D RS=1.000E-3 CJO=1.000E-12 M=.3333 VJ=.75 ISR=47.02E-9 BV=75.08
+ IBV=43.11E-3 TT=5.000E-9
*$
.MODEL D05AZ7_5 D RS=1.000E-3 CJO=1.000E-12 M=.3333 VJ=.75 ISR=270.3E-9
+ BV=7.554 IBV=.1617 TT=5.000E-9
*$
.MODEL D05AZ82 D RS=1.000E-3 CJO=1.000E-12 M=.3333 VJ=.75 ISR=45.49E-9 BV=82.08
+ IBV=43.11E-3 TT=5.000E-9
*$
.MODEL D05AZ8_2 D RS=1.000E-3 CJO=1.000E-12 M=.3333 VJ=.75 ISR=253.6E-9
+ BV=8.254 IBV=.1617 TT=5.000E-9
*$
.MODEL D05AZ91 D RS=1.000E-3 CJO=1.000E-12 M=.3333 VJ=.75 ISR=44.15E-9 BV=91.07
+ IBV=32.33E-3 TT=5.000E-9
*$
.MODEL D05AZ9_1 D RS=1.000E-3 CJO=1.000E-12 M=.3333 VJ=.75 ISR=240.4E-9
+ BV=9.154 IBV=.1617 TT=5.000E-9
*$
.subckt D05B4B48 1 2 3 4
d1 1 3 DD05B4B48
d2 4 2 DD05B4B48
d3 2 3 DD05B4B48
d4 4 1 DD05B4B48
.model DD05B4B48 D IS=400.9E-9 N=2.746 RS=1.000E-3 IKF=.171 CJO=1.000E-12
+ M=.3333 VJ=.75 ISR=100.0E-12 BV=100 IBV=10.00E-6 TT=5.000E-9
.ends
*$
.subckt D05D4B48 1 2 3 4
d1 1 3 DD05D4B48
d2 4 2 DD05D4B48
d3 23 DD05D4B48
d4 4 1 DD05D4B48
.model DD05D4B48 D IS=400.9E-9 N=2.746 RS=1.000E-3 IKF=.1719 CJO=1.000E-12
+ M=.3333 VJ=.75 ISR=100.0E-12 BV=200 IBV=10.00E-6 TT=5.000E-9
.ends
*$
.subckt D05G4B48 1 2 3 4
d1 1 3 DD05G4B48
d2 4 2 DD05G4B48
d3 2 3 DD05G4B48
d4 4 1 DD05G4B48
.model DD05G4B48 D IS=400.9E-9 N=2.746 RS=1.000E-3 IKF=.1719 CJO=1.000E-12
+ M=.3333 VJ=.75 ISR=100.0E-12 BV=400 IBV=10.00E-6 TT=5.000E-9
.ends
*$
.subckt D05J4B48 1 2 3 4
d1_D05J4B48 1 3 DD05J4B48
d2_D05J4B48 2 3 DD05J4B48
d3_D05J4B48 4 1 DD05J4B48
d4_D05J4B48 4 2 DD05J4B48
.MODEL DD05J4B48 D IS=400.9E-9 N=2.746 RS=1.000E-3 IKF=.1719 CJO=1.000E-12
+ M=.3333 VJ=.75 ISR=100.0E-12 BV=100 IBV=10.00E-6 TT=5.000E-9
.ends
*$
.model D05NH45  D(Is=99.9m N=5.564 Rs=88.23m Ikf=67.37u Xti=3 Eg=1.11
+               Cjo=29.35p M=.455 Vj=1.355 Fc=.5 Isr=100p Nr=2 Bv=1K Ibv=100u
+               Tt=288.5n)
*$
.model D05NH46  D(Is=147.9u N=5.884 Rs=.1973 Ikf=.1277 Xti=3 Eg=1.11 Cjo=32.96p
+               M=.3743 Vj=.4717 Fc=.5 Isr=100p Nr=2 Bv=1K Ibv=100u Tt=288.5n)
*$
.model D05NU41  D(Is=170u N=10 Rs=1.734 Ikf=10.53 Xti=3 Eg=1.11 Cjo=24.06p
+               M=.5184 Vj=2.501 Fc=.5 Isr=100p Nr=2 Bv=1K Ibv=100u Tt=144.3n)
*$
.model D05NU42  D(Is=170u N=10 Rs=1.734 Ikf=10.53 Xti=3 Eg=1.11 Cjo=24.06p
+               M=.5184 Vj=2.501 Fc=.5 Isr=100p Nr=2 Bv=1K Ibv=100u Tt=144.3n)
*$
.MODEL D10D1 D IS=10.01E-21 RS=1.000E-3 CJO=1.000E-12 M=.3333 VJ=.75
+ ISR=195.3E-6 BV=100 IBV=100.0E-6 TT=5.000E-9
*$
.MODEL D10D2 D IS=10.01E-21 RS=1.000E-3 CJO=1.000E-12 M=.3333 VJ=.75
+ ISR=195.3E-6 BV=100 IBV=100.0E-6 TT=5.000E-9
*$
*             anode1
*             | anode2
*             | | cathode
*             | | |
.subckt D1B2C1 1 2 3
d1 1 3 DD1B2C1
d2 2 3 DD1B2C1 
.model DD1B2C1 D=11.76E-6 N=3.725 RS=1.000E-3 IKF=1.267 CJO=1.000E-12 M=.3333
+ VJ=.75 ISR=100.0E-12 BV=100 IBV=400.0E-6 TT=5.000E-9
.ends
*$
*               anode
*               | cathode1
*               | | cathode2
*               | | |
.subckt D1B2Z1 3 1 2
d1 3 1 DD1B2Z1
d2 3 2 DD1B2Z1 
.model DD1B2Z1 D IS=11.76E-6 N=3.725 RS=1.000E-3 IKF=1.267 CJO=1.000E-12
+ M=.3333 VJ=.75 ISR=100.0E-12 BV=100 IBV=400.0E-6 TT=5.000E-9
.ends
*$
.subckt D1B4B1 1 2 3 4
d1 2 1 DD1B4B1
d2 2 3 DD1B4B1
d3 3 4 DD1B4B1
d4 1 4 DD1B4B1
.model DD1B4B1 D  IS=49.98E-6 N=5 RS=1.000E-3 CJO=1.000E-12 M=.3333 VJ=.75
+ ISR=100.0E-12 BV=100 IBV=400.0E-6 TT=5.000E-9
.ends
*$
.subckt D1B4B41 1 2 3 4
d1 4 2 DD1B4B41
d2 4 3 DD1B4B41
d3 3 1 DD1B4B41
d4 2 1 DD1B4B41
.model DD1B4B41 D  IS=50.50E-6 N=5 RS=1.000E-3 CJO=1.000E-12 M=.3333 VJ=.75
+ ISR=100.0E-12 BV=100 IBV=10.00E-6 TT=5.000E-9
.ends
*$
*             anode1
*             | anode2
*             | | cathode
*             | | |
.subckt D1D2C1 1 2 3
d1 1 3 DD1D2C1
d2 2 3 DD1D2C1 
.model DD1D2C1 D IS=11.76E-6 N=3.725 RS=1.000E-3 IKF=1.267 CJO=1.000E-12
+ M=.3333 VJ=.75 ISR=100.0E-12 BV=200 IBV=400.0E-6 TT=5.000E-9
.ends
*$
*               anode
*               | cathode1
*               | | cathode2
*               | | |
.subckt D1D2Z1 3 1 2
d1 3 1 DD1D2Z1
d2 3 2 DD1D2Z1 
.model DD1D2Z1 D IS=11.76E-6 N=3.725 RS=1.000E-3 IKF=1.267 CJO=1.000E-12
+ M=.3333 VJ=.75 ISR=100.0E-12 BV=200 IBV=400.0E-6 TT=5.000E-9
.ends
*$
.subckt D1D4B1 1 2 3 4
d1 2 1 DD1D4B1
d2 2 3 DD1D4B1
d3 3 4 DD1D4B1
d4 1 4 DD1D4B1
.model DD1D4B1 D  IS=49.98E-6 N=5 RS=1.000E-3 CJO=1.000E-12 M=.3333 VJ=.75
+ ISR=100.0E-12 BV=200 IBV=400.0E-6 TT=5.000E-9
.ends
*$
.subckt D1D4B41 1 2 3 4
d1 4 2 DD1D4B41
d2 4 3 DD1D4B41
d3 3 1 DD1D4B41
d4 2 1 DD1D4B41
.model DD1D4B41 D  IS=50.50E-6 N=5 RS=1.000E-3 CJO=1.000E-12 M=.3333 VJ=.75
+ ISR=100.0E-12 BV=200 IBV=10.00E-6 TT=5.000E-9
.ends
*$
.model D1DL41A  D(Is=19.47u N=3.413 Rs=13.58m Ikf=8.703 Xti=3 Eg=1.11 Cjo=1p
+               M=.3333 Vj=.75 Fc=.5 Isr=100p Nr=2 Bv=200 Ibv=100u Tt=50.49n)
*$
.model D1DL42A  D(Is=1.206u N=2.599 Rs=22.38m Ikf=1.159 Xti=3 Eg=1.11 Cjo=1p
+               M=.3333 Vj=.75 Fc=.5 Isr=15.33u Nr=2 Bv=200 Ibv=100u Tt=50.49n)
*$
*             anode1
*             | anode2
*             | | cathode
*             | | |
.subckt D1G2C1 1 2 3
d1 1 3 DD1G2C1
d2 2 3 DD1G2C1 
.model DD1G2C1 D IS=11.76E-6 N=3.725 RS=1.000E-3 IKF=1.267 CJO=1.000E-12
+ M=.3333 VJ=.75 ISR=100.0E-12 BV=400 IBV=400.0E-6 TT=5.000E-9
.ends
*$
*             anode1
*             | anode2
*             | | cathode
*             | | |
.subckt D1G2Z1 1 2 3
d1 1 3 DD1G2Z1
d2 2 3 DD1G2Z1 
.model DD1G2Z1 D IS=11.76E-6 N=3.725 RS=1.000E-3 IKF=1.267 CJO=1.000E-12
+ M=.3333 VJ=.75 ISR=100.0E-12 BV=400 IBV=400.0E-6 TT=5.000E-9
.ends
*$
.subckt D1G4B1 1 2 3 4
d1 2 1 DD1G4B1
d2 2 3 DD1G4B1
d3 3 4 DD1G4B1
d4 1 4 DD1G4B1
.model DD1G4B1 D IS=49.98E-6 N=5 RS=1.000E-3 CJO=1.000E-12 M=.3333 VJ=.75
+ ISR=100.0E-12 BV=400 IBV=400.0E-6 TT=5.000E-9
.ends
*$
.subckt D1G4B41 1 2 3 4
d1 4 2 DD1G4B41
d2 4 3 DD1G4B41
d3 3 1 DD1G4B41
d4 2 1 DD1G4B41
.model DD1G4B41 D  IS=50.50E-6 N=5 RS=1.000E-3 CJO=1.000E-12 M=.3333 VJ=.75
+ ISR=100.0E-12 BV=400 IBV=10.00E-6 TT=5.000E-9
.ends
*$
*             anode1
*             | anode2
*             | | cathode
*             | | |
.subckt D1J2C1 1 2 3
d1 1 3 DD1J2C1
d2 2 3 DD1J2C1 
.model DD1J2C1 D IS=11.76E-6 N=3.725 RS=1.000E-3 IKF=1.267 CJO=1.000E-12
+ M=.3333 VJ=.75 ISR=100.0E-12 BV=600 IBV=400.0E-6 TT=5.000E-9
.ends
*$
.subckt D1J2Z1 3 2 1
d1_dij2z1 3 1 DD1J2Z1
d1_dij2z1 3 2 DD1J2Z1
.model DD1J2Z1 D IS=11.76E-6 N=3.725 RS=1.000E-3 IKF=1.267 CJO=1.000E-12
+ M=.3333 VJ=.75 ISR=100.0E-12 BV=600 IBV=400.0E-6 TT=5.000E-9
.ends
*$
.subckt D1J4B1 1 2 3 4
d1 2 1 DD1J4B1
d2 2 3 DD1J4B1
d3 3 4 DD1J4B1
d4 1 4 DD1J4B1
.model DD1J4B1 D  IS=49.98E-6 N=5 RS=1.000E-3 CJO=1.000E-12 M=.3333 VJ=.75
+ ISR=100.0E-12 BV=600 IBV=400.0E-6 TT=5.000E-9
.ends
*$
.subckt D1J4B41 1 2 3 4
d1 4 2 DD1J4B41
d2 4 3 DD1J4B41
d3 3 1 DD1J4B41
d4 2 1 DD1J4B41
.model DD1J4B41 D  IS=50.50E-6 N=5 RS=1.000E-3 CJO=1.000E-12 M=.3333 VJ=.75
+ ISR=100.0E-12 BV=600 IBV=10.00E-6 TT=5.000E-9
.ends
*$
.model D1S1553  D(Is=19.68p N=1.57 Rs=15.64m Ikf=0 Xti=3 Eg=1.11 Cjo=1.389p
+               M=.1503 Vj=.6842 Fc=.5 Isr=3.422p Nr=2 Bv=60 Ibv=100u Tt=5n)
*$
.model D1S1554  D(Is=19.68p N=1.57 Rs=15.64m Ikf=0 Xti=3 Eg=1.11 Cjo=1.389p
+               M=.1503 Vj=.6842 Fc=.5 Isr=3.422p Nr=2 Bv=50 Ibv=100u Tt=5n)
*$
.model D1S1555  D(Is=19.68p N=1.57 Rs=15.64m Ikf=0 Xti=3 Eg=1.11 Cjo=1.389p
+               M=.1503 Vj=.6842 Fc=.5 Isr=3.422p Nr=2 Bv=30 Ibv=100u Tt=5n)
*$
.model D1S1585  D(Is=19.68p N=1.57 Rs=15.64m Ikf=0 Xti=3 Eg=1.11 Cjo=1.389p
+               M=.1503 Vj=.6842 Fc=.5 Isr=3.422p Nr=2 Bv=80 Ibv=100u Tt=5n)
*$
.model D1S1586  D(Is=19.68p N=1.57 Rs=15.64m Ikf=0 Xti=3 Eg=1.11 Cjo=1.389p
+               M=.1503 Vj=.6842 Fc=.5 Isr=3.422p Nr=2 Bv=50 Ibv=100u Tt=5n)
*$
.model D1S1587  D(Is=19.68p N=1.57 Rs=15.64m Ikf=0 Xti=3 Eg=1.11 Cjo=1.389p
+               M=.1503 Vj=.6842 Fc=.5 Isr=3.422p Nr=2 Bv=50 Ibv=100u Tt=5n)
*$
.model D1S1588  D(Is=19.68p N=1.57 Rs=15.64m Ikf=0 Xti=3 Eg=1.11 Cjo=1.389p
+               M=.1503 Vj=.6842 Fc=.5 Isr=3.422p Nr=2 Bv=30 Ibv=100u Tt=5n)
*$
.model D1S2092  D(Is=97.87n N=3.11 Rs=1.872 Ikf=3.934 Xti=12 Eg=1.11 Cjo=816.2f
+               M=33.27m Vj=.3959 Fc=.5 Isr=10n Nr=3.95 Bv=125 Ibv=100u
+               Tt=2.885n)
*$
.model D1S2095A D(Is=19.68p N=1.57 Rs=15.64m Ikf=0 Xti=3 Eg=1.11 Cjo=1.389p
+               M=.1503 Vj=.6842 Fc=.5 Isr=3.422p Nr=2 Bv=70 Ibv=100u Tt=5n)
*$
.model D1S2186  D(Is=342.9p N=1.819 Rs=59.98m Ikf=.4328 Xti=3 Eg=1.11
+               Cjo=2.056p M=.1387 Vj=.773 Fc=.5 Isr=10f Nr=4.089 Bv=20
+               Ibv=100u Tt=5n)
*$
.model D1S220   D(Is=10f N=1 Rs=.1 Ikf=0 Xti=3 Eg=1.11 Cjo=1p M=.3333 Vj=.75
+               Fc=.5 Isr=843.2n Nr=2 Bv=4.482 Ibv=30.61m Tt=5n)
*$
.model D1S221   D(Is=10f N=1 Rs=.1 Ikf=0 Xti=3 Eg=1.11 Cjo=1p M=.3333 Vj=.75
+               Fc=.5 Isr=843.2n Nr=2 Bv=5.487 Ibv=37.21m Tt=5n)
*$
.model D1S222   D(Is=10f N=1 Rs=.1 Ikf=0 Xti=3 Eg=1.11 Cjo=1p M=.3333 Vj=.75
+               Fc=.5 Isr=753.9n Nr=2 Bv=6.544 Ibv=.2173 Tt=5n)
*$
.model D1S223   D(Is=10f N=1 Rs=.1 Ikf=0 Xti=3 Eg=1.11 Cjo=1p M=.3333 Vj=.75
+               Fc=.5 Isr=753.9n Nr=2 Bv=7.548 Ibv=.2548 Tt=5n)
*$
.model D1S224   D(Is=10f N=1 Rs=.1 Ikf=0 Xti=3 Eg=1.11 Cjo=1p M=.3333 Vj=.75
+               Fc=.5 Isr=753.9n Nr=2 Bv=8.54 Ibv=.1895 Tt=5n)
*$
.model D1S225   D(Is=10f N=1 Rs=.1 Ikf=0 Xti=3 Eg=1.11 Cjo=1p M=.3333 Vj=.75
+               Fc=.5 Isr=753.9n Nr=2 Bv=9.54 Ibv=.1895 Tt=5n)
*$
.model D1S226   D(Is=10f N=1 Rs=.1 Ikf=0 Xti=3 Eg=1.11 Cjo=1p M=.3333 Vj=.75
+               Fc=.5 Isr=753.9n Nr=2 Bv=11.05 Ibv=.1754 Tt=5n)
*$
.model D1S227   D(Is=10f N=1 Rs=.1 Ikf=0 Xti=3 Eg=1.11 Cjo=1p M=.3333 Vj=.75
+               Fc=.5 Isr=753.9n Nr=2 Bv=12.04 Ibv=.1398 Tt=5n)
*$
.model D1S228   D(Is=10f N=1 Rs=.1 Ikf=0 Xti=3 Eg=1.11 Cjo=1p M=.3333 Vj=.75
+               Fc=.5 Isr=753.9n Nr=2 Bv=13.04 Ibv=.1162 Tt=5n)
*$
.model D1S229   D(Is=10f N=1 Rs=.1 Ikf=0 Xti=3 Eg=1.11 Cjo=1p M=.3333 Vj=.75
+               Fc=.5 Isr=753.9n Nr=2 Bv=14.03 Ibv=94.91m Tt=5n)
*$
.model D1S230   D(Is=10f N=1 Rs=.1 Ikf=0 Xti=3 Eg=1.11 Cjo=1p M=.3333 Vj=.75
+               Fc=.5 Isr=753.9n Nr=2 Bv=15.03 Ibv=80.2m Tt=5n)
*$
.model D1S231   D(Is=10f N=1 Rs=.1 Ikf=0 Xti=3 Eg=1.11 Cjo=1p M=.3333 Vj=.75
+               Fc=.5 Isr=753.9n Nr=2 Bv=16.04 Ibv=76.45m Tt=5n)
*$
.model D1S232   D(Is=10f N=1 Rs=.1 Ikf=0 Xti=3 Eg=1.11 Cjo=1p M=.3333 Vj=.75
+               Fc=.5 Isr=753.9n Nr=2 Bv=17.04 Ibv=76.45m Tt=5n)
*$
.model D1S233   D(Is=10f N=1 Rs=.1 Ikf=0 Xti=3 Eg=1.11 Cjo=1p M=.3333 Vj=.75
+               Fc=.5 Isr=753.9n Nr=2 Bv=18.04 Ibv=76.45m Tt=5n)
*$
.model D1S234   D(Is=10f N=1 Rs=.1 Ikf=0 Xti=3 Eg=1.11 Cjo=1p M=.3333 Vj=.75
+               Fc=.5 Isr=753.9n Nr=2 Bv=19.04 Ibv=76.45m Tt=5n)
*$
.model D1S235   D(Is=10f N=1 Rs=.1 Ikf=0 Xti=3 Eg=1.11 Cjo=1p M=.3333 Vj=.75
+               Fc=.5 Isr=753.9n Nr=2 Bv=20.04 Ibv=76.45m Tt=5n)
*$
.model D1S236   D(Is=10f N=1 Rs=.1 Ikf=0 Xti=3 Eg=1.11 Cjo=1p M=.3333 Vj=.75
+               Fc=.5 Isr=753.9n Nr=2 Bv=22.05 Ibv=72.09m Tt=5n)
*$
.model D1S237   D(Is=10f N=1 Rs=.1 Ikf=0 Xti=3 Eg=1.11 Cjo=1p M=.3333 Vj=.75
+               Fc=.5 Isr=753.9n Nr=2 Bv=24.05 Ibv=72.09m Tt=5n)
*$
.model D1S238   D(Is=10f N=1 Rs=.1 Ikf=0 Xti=3 Eg=1.11 Cjo=1p M=.3333 Vj=.75