* Library of Japanese Operational Amplifier Models

*  Copyright OrCAD, Inc. 1998 All Rights Reserved.

* $Revision:   1.6  $
* $Author:   RPEREZ  $
* $Date:   20 Apr 1998 08:41:34  $

* ---------------------------------------------------------------------------
* The parameters in this model library were derived from the data sheets for
* each part.  Each part was characterized using the Parts option.
* ---------------------------------------------------------------------------
*$
*
* connections:   non-inverting input
*                | inverting input
*                | | positive power supply
*                | | | negative power supply
*                | | | | output
*                | | | | |
.subckt an4558   1 2 3 4 5
*
  c1   11 12 8.660E-12
  c2    6  7 30.00E-12
  dc    5 53 dx
  de   54  5 dx
  dlp  90 91 dx
  dln  92 90 dx
  dp    4  3 dx
  egnd 99  0 poly(2) (3,0) (4,0) 0 .5 .5
  fb    7 99 poly(5) vb vc ve vlp vln 0 7.074E6 -7E6 7E6 7E6 -7E6
  ga    6  0 11 12 565.5E-6
  gcm   0  6 10 99 17.88E-9
  iee   3 10 dc 30.12E-6
  hlim 90  0 vlim 1K
  q1   11  2 13 qx
  q2   12  1 14 qx
  r2    6  9 100.0E3
  rc1   4 11 1.768E3
  rc2   4 12 1.768E3
  re1  13 10 43.93
  re2  14 10 43.93
  ree  10 99 6.640E6
  ro1   8  5 50
  ro2   7 99 25
  rp    3  4 7.557E3
  vb    9  0 dc 0
  vc    3 53 dc 1
  ve   54  4 dc 1
  vlim  7  8 dc 0
  vlp  91  0 dc 20
  vln   0 92 dc 20
.model dx D(Is=800.0E-18)
.model qx PNP(Is=800.0E-18 Bf=250)
.ends

*$
*
* connections:   non-inverting input
*                | inverting input
*                | | positive power supply
*                | | | negative power supply
*                | | | | output
*                | | | | |
.subckt an6551   1 2 3 4 5
*
  c1   11 12 8.660E-12
  c2    6  7 30.00E-12
  dc    5 53 dx
  de   54  5 dx
  dlp  90 91 dx
  dln  92 90 dx
  dp    4  3 dx
  egnd 99  0 poly(2) (3,0) (4,0) 0 .5 .5
  fb    7 99 poly(5) vb vc ve vlp vln 0 42.44E6 -42E6 42E6 42E6 -42E6
  ga    6  0 11 12 471.2E-6
  gcm   0  6 10 99 14.90E-9
  iee   3 10 dc 30.20E-6
  hlim 90  0 vlim 1K
  q1   11  2 13 qx
  q2   12  1 14 qx
  r2    6  9 100.0E3
  rc1   4 11 2.122E3
  rc2   4 12 2.122E3
  re1  13 10 395.2
  re2  14 10 395.2
  ree  10 99 6.623E6
  ro1   8  5 50
  ro2   7 99 25
  rp    3  4 18.33E3
  vb    9  0 dc 0
  vc    3 53 dc 2
  ve   54  4 dc 2
  vlim  7  8 dc 0
  vlp  91  0 dc 20
  vln   0 92 dc 20
.model dx D(Is=800.0E-18)
.model qx PNP(Is=800.0E-18 Bf=150)
.ends

*$
*
* connections:   non-inverting input
*                | inverting input
*                | | positive power supply
*                | | | negative power supply
*                | | | | output
*                | | | | |
.subckt an6552   1 2 3 4 5
*
  c1   11 12 8.660E-12
  c2    6  7 30.00E-12
  dc    5 53 dx
  de   54  5 dx
  dlp  90 91 dx
  dln  92 90 dx
  dp    4  3 dx
  egnd 99  0 poly(2) (3,0) (4,0) 0 .5 .5
  fb    7 99 poly(5) vb vc ve vlp vln 0 7.074E6 -7E6 7E6 7E6 -7E6
  ga    6  0 11 12 565.5E-6
  gcm   0  6 10 99 17.88E-9
  iee   3 10 dc 30.12E-6
  hlim 90  0 vlim 1K
  q1   11  2 13 qx
  q2   12  1 14 qx
  r2    6  9 100.0E3
  rc1   4 11 1.768E3
  rc2   4 12 1.768E3
  re1  13 10 43.93
  re2  14 10 43.93
  ree  10 99 6.640E6
  ro1   8  5 50
  ro2   7 99 25
  rp    3  4 7.557E3
  vb    9  0 dc 0
  vc    3 53 dc 1
  ve   54  4 dc 1
  vlim  7  8 dc 0
  vlp  91  0 dc 20
  vln   0 92 dc 20
.model dx D(Is=800.0E-18)
.model qx PNP(Is=800.0E-18 Bf=250)
.ends

*$
*
* connections:   non-inverting input
*                | inverting input
*                | | positive power supply
*                | | | negative power supply
*                | | | | output
*                | | | | |
.subckt an6553   1 2 3 4 5
*
  c1   11 12 8.660E-12
  c2    6  7 30.00E-12
  dc    5 53 dx
  de   54  5 dx
  dlp  90 91 dx
  dln  92 90 dx
  dp    4  3 dx
  egnd 99  0 poly(2) (3,0) (4,0) 0 .5 .5
  fb    7 99 poly(5) vb vc ve vlp vln 0 42.44E6 -42E6 42E6 42E6 -42E6
  ga    6  0 11 12 1.131E-3
  gcm   0  6 10 99 35.76E-9
  iee   3 10 dc 60.20E-6
  hlim 90  0 vlim 1K
  q1   11  2 13 qx
  q2   12  1 14 qx
  r2    6  9 100.0E3
  rc1   4 11 884.2
  rc2   4 12 884.2
  re1  13 10 21.98
  re2  14 10 21.98
  ree  10 99 3.322E6
  ro1   8  5 50
  ro2   7 99 25
  rp    3  4 6.073E3
  vb    9  0 dc 0
  vc    3 53 dc 2
  ve   54  4 dc 2
  vlim  7  8 dc 0
  vlp  91  0 dc 20
  vln   0 92 dc 20
.model dx D(Is=800.0E-18)
.model qx PNP(Is=800.0E-18 Bf=300)
.ends

*$
*
* connections:   non-inverting input
*                | inverting input
*                | | positive power supply
*                | | | negative power supply
*                | | | | output
*                | | | | |
.subckt an6554   1 2 3 4 5
*
  c1   11 12 8.660E-12
  c2    6  7 30.00E-12
  dc    5 53 dx
  de   54  5 dx
  dlp  90 91 dx
  dln  92 90 dx
  dp    4  3 dx
  egnd 99  0 poly(2) (3,0) (4,0) 0 .5 .5
  fb    7 99 poly(5) vb vc ve vlp vln 0 42.44E6 -42E6 42E6 42E6 -42E6
  ga    6  0 11 12 885.9E-6
  gcm   0  6 10 99 28.02E-9
  iee   3 10 dc 48.20E-6
  hlim 90  0 vlim 1K
  q1   11  2 13 qx
  q2   12  1 14 qx
  r2    6  9 100.0E3
  rc1   4 11 1.129E3
  rc2   4 12 1.129E3
  re1  13 10 50.87
  re2  14 10 50.87
  ree  10 99 4.149E6
  ro1   8  5 50
  ro2   7 99 25
  rp    3  4 5.503E3
  vb    9  0 dc 0
  vc    3 53 dc 2
  ve   54  4 dc 2
  vlim  7  8 dc 0
  vlp  91  0 dc 20
  vln   0 92 dc 20
.model dx D(Is=800.0E-18)
.model qx PNP(Is=800.0E-18 Bf=240)
.ends

*$
*
* connections:   non-inverting input
*                | inverting input
*                | | positive power supply
*                | | | negative power supply
*                | | | | output
*                | | | | |  compensation
*                | | | | | / \
.subckt ha17080  1 2 3 4 5 6 7
*
  c1   11 12 2.887E-12
  dc    5 53 dx
  de   54  5 dx
  dlp  90 91 dx
  dln  92 90 dx
  dp    4  3 dx
  egnd 99  0 poly(2) (3,0) (4,0) 0 .5 .5
  fb    7 99 poly(5) vb vc ve vlp vln 0 127.3E6 -130E6 130E6 130E6 -130E6
  ga    6  0 11 12 188.5E-6
  gcm   0  6 10 99 9.447E-9
  iss   3 10 dc 130.0E-6
  hlim 90  0 vlim 1K
  j1   11  2 10 jx
  j2   12  1 10 jx
  r2    6  9 100.0E3
  rd1   4 11 5.305E3
  rd2   4 12 5.305E3
  ro1   8  5 50
  ro2   7 99 25
  rp    3  4 18.00E3
  rss  10 99 1.538E6
  vb    9  0 dc 0
  vc    3 53 dc 3
  ve   54  4 dc 3
  vlim  7  8 dc 0
  vlp  91  0 dc 20
  vln   0 92 dc 20
.model dx D(Is=800.0E-18)
.model jx PJF(Is=15.00E-12 Beta=273.3E-6 Vto=-1)
.ends

*$
*
* connections:   non-inverting input
*                | inverting input
*                | | positive power supply
*                | | | negative power supply
*                | | | | output
*                | | | | |
.subckt ha17082  1 2 3 4 5
*
  c1   11 12 2.887E-12
  c2    6  7 10.00E-12
  dc    5 53 dx
  de   54  5 dx
  dlp  90 91 dx
  dln  92 90 dx
  dp    4  3 dx
  egnd 99  0 poly(2) (3,0) (4,0) 0 .5 .5
  fb    7 99 poly(5) vb vc ve vlp vln 0 127.3E6 -130E6 130E6 130E6 -130E6
  ga    6  0 11 12 188.5E-6
  gcm   0  6 10 99 9.447E-9
  iss   3 10 dc 130.0E-6
  hlim 90  0 vlim 1K
  j1   11  2 10 jx
  j2   12  1 10 jx
  r2    6  9 100.0E3
  rd1   4 11 5.305E3
  rd2   4 12 5.305E3
  ro1   8  5 50
  ro2   7 99 25
  rp    3  4 18.00E3
  rss  10 99 1.538E6
  vb    9  0 dc 0
  vc    3 53 dc 1.500
  ve   54  4 dc 1.500
  vlim  7  8 dc 0
  vlp  91  0 dc 20
  vln   0 92 dc 20
.model dx D(Is=800.0E-18)
.model jx PJF(Is=15.00E-12 Beta=273.3E-6 Vto=-1)
.ends

*$
*
* connections:   non-inverting input
*                | inverting input
*                | | positive power supply
*                | | | negative power supply
*                | | | | output
*                | | | | |
.subckt ha17083  1 2 3 4 5
*
  c1   11 12 2.887E-12
  c2    6  7 10.00E-12
  dc    5 53 dx
  de   54  5 dx
  dlp  90 91 dx
  dln  92 90 dx
  dp    4  3 dx
  egnd 99  0 poly(2) (3,0) (4,0) 0 .5 .5
  fb    7 99 poly(5) vb vc ve vlp vln 0 127.3E6 -130E6 130E6 130E6 -130E6
  ga    6  0 11 12 188.5E-6
  gcm   0  6 10 99 9.447E-9
  iss   3 10 dc 130.0E-6
  hlim 90  0 vlim 1K
  j1   11  2 10 jx
  j2   12  1 10 jx
  r2    6  9 100.0E3
  rd1   4 11 5.305E3
  rd2   4 12 5.305E3
  ro1   8  5 50
  ro2   7 99 25
  rp    3  4 18.00E3
  rss  10 99 1.538E6
  vb    9  0 dc 0
  vc    3 53 dc 1.500
  ve   54  4 dc 1.500
  vlim  7  8 dc 0
  vlp  91  0 dc 20
  vln   0 92 dc 20
.model dx D(Is=800.0E-18)
.model jx PJF(Is=15.00E-12 Beta=273.3E-6 Vto=-1)
.ends

*$
*
* connections:   non-inverting input
*                | inverting input
*                | | positive power supply
*                | | | negative power supply
*                | | | | output
*                | | | | |
.subckt ha17084  1 2 3 4 5
*
  c1   11 12 2.887E-12
  c2    6  7 10.00E-12
  dc    5 53 dx
  de   54  5 dx
  dlp  90 91 dx
  dln  92 90 dx
  dp    4  3 dx
  egnd 99  0 poly(2) (3,0) (4,0) 0 .5 .5
  fb    7 99 poly(5) vb vc ve vlp vln 0 127.3E6 -130E6 130E6 130E6 -130E6
  ga    6  0 11 12 188.5E-6
  gcm   0  6 10 99 9.447E-9
  iss   3 10 dc 130.0E-6
  hlim 90  0 vlim 1K
  j1   11  2 10 jx
  j2   12  1 10 jx
  r2    6  9 100.0E3
  rd1   4 11 5.305E3
  rd2   4 12 5.305E3
  ro1   8  5 50
  ro2   7 99 25
  rp    3  4 18.00E3
  rss  10 99 1.538E6
  vb    9  0 dc 0
  vc    3 53 dc 1.500
  ve   54  4 dc 1.500
  vlim  7  8 dc 0
  vlp  91  0 dc 20
  vln   0 92 dc 20
.model dx D(Is=800.0E-18)
.model jx PJF(Is=15.00E-12 Beta=273.3E-6 Vto=-1)
.ends

*$
*
* connections:   non-inverting input
*                | inverting input
*                | | positive power supply
*                | | | negative power supply
*                | | | | output
*                | | | | |
.subckt ha17558  1 2 3 4 5
*
  c1   11 12 8.660E-12
  c2    6  7 30.00E-12
  dc    5 53 dx
  de   54  5 dx
  dlp  90 91 dx
  dln  92 90 dx
  dp    4  3 dx
  egnd 99  0 poly(2) (3,0) (4,0) 0 .5 .5
  fb    7 99 poly(5) vb vc ve vlp vln 0 42.44E6 -42E6 42E6 42E6 -42E6
  ga    6  0 11 12 565.5E-6
  gcm   0  6 10 99 5.655E-9
  iee   3 10 dc 30.10E-6
  hlim 90  0 vlim 1K
  q1   11  2 13 qx
  q2   12  1 14 qx
  r2    6  9 100.0E3
  rc1   4 11 1.768E3
  rc2   4 12 1.768E3
  re1  13 10 43.96
  re2  14 10 43.96
  ree  10 99 6.645E6
  ro1   8  5 50
  ro2   7 99 25
  rp    3  4 10.10E3
  vb    9  0 dc 0
  vc    3 53 dc 2.600
  ve   54  4 dc 2.600
  vlim  7  8 dc 0
  vlp  91  0 dc 20
  vln   0 92 dc 20
.model dx D(Is=800.0E-18)
.model qx PNP(Is=800.0E-18 Bf=300)
.ends

*$
*
* connections:   non-inverting input
*                | inverting input
*                | | positive power supply
*                | | | negative power supply
*                | | | | output
*                | | | | |
.subckt ha17741  1 2 3 4 5
*
  c1   11 12 5.460E-12
  c2    6  7 30.00E-12
  dc    5 53 dx
  de   54  5 dx
  dlp  90 91 dx
  dln  92 90 dx
  dp    4  3 dx
  egnd 99  0 poly(2) (3,0) (4,0) 0 .5 .5
  fb    7 99 poly(5) vb vc ve vlp vln 0 21.22E6 -21E6 21E6 21E6 -21E6
  ga    6  0 11 12 188.5E-6
  gcm   0  6 10 99 5.961E-9
  iee  10  4 dc 30.15E-6
  hlim 90  0 vlim 1K
  q1   11  2 13 qx
  q2   12  1 14 qx
  r2    6  9 100.0E3
  rc1   3 11 5.305E3
  rc2   3 12 5.305E3
  re1  13 10 3.563E3
  re2  14 10 3.563E3
  ree  10 99 6.633E6
  ro1   8  5 50
  ro2   7 99 50
  rp    3  4 14.04E3
  vb    9  0 dc 0
  vc    3 53 dc 1
  ve   54  4 dc 1
  vlim  7  8 dc 0
  vlp  91  0 dc 40
  vln   0 92 dc 40
.model dx D(Is=800.0E-18)
.model qx NPN(Is=800.0E-18 Bf=200)
.ends

*$
*
* connections:   non-inverting input
*                | inverting input
*                | | positive power supply
*                | | | negative power supply
*                | | | | output
*                | | | | |
.subckt ir3741  1 2 3 4 5
*
  c1   11 12 5.460E-12
  c2    6  7 30.00E-12
  dc    5 53 dx
  de   54  5 dx
  dlp  90 91 dx
  dln  92 90 dx
  dp    4  3 dx
  egnd 99  0 poly(2) (3,0) (4,0) 0 .5 .5
  fb    7 99 poly(5) vb vc ve vlp vln 0 21.22E6 -21E6 21E6 21E6 -21E6
  ga    6  0 11 12 188.5E-6
  gcm   0  6 10 99 5.961E-9
  iee  10  4 dc 30.15E-6
  hlim 90  0 vlim 1K
  q1   11  2 13 qx
  q2   12  1 14 qx
  r2    6  9 100.0E3
  rc1   3 11 5.305E3
  rc2   3 12 5.305E3
  re1  13 10 3.563E3
  re2  14 10 3.563E3
  ree  10 99 6.633E6
  ro1   8  5 50
  ro2   7 99 50
  rp    3  4 14.04E3
  vb    9  0 dc 0
  vc    3 53 dc 1
  ve   54  4 dc 1
  vlim  7  8 dc 0
  vlp  91  0 dc 40
  vln   0 92 dc 40
.model dx D(Is=800.0E-18)
.model qx NPN(Is=800.0E-18 Bf=200)
.ends

*$
*
* connections:   non-inverting input
*                | inverting input
*                | | positive power supply
*                | | | negative power supply
*                | | | | output
*                | | | | |
.subckt mb3607   1 2 3 4 5
*
  c1   11 12 8.660E-12
  c2    6  7 30.00E-12
  dc    5 53 dx
  de   54  5 dx
  dlp  90 91 dx
  dln  92 90 dx
  dp    4  3 dx
  egnd 99  0 poly(2) (3,0) (4,0) 0 .5 .5
  fb    7 99 poly(5) vb vc ve vlp vln 0 42.44E6 -42E6 42E6 42E6 -42E6
  ga    6  0 11 12 188.5E-6
  gcm   0  6 10 99 5.961E-9
  iee  10  4 dc 18.16E-6
  hlim 90  0 vlim 1K
  q1   11  2 13 qx
  q2   12  1 14 qx
  r2    6  9 100.0E3
  rc1   3 11 5.305E3
  rc2   3 12 5.305E3
  re1  13 10 2.410E3
  re2  14 10 2.410E3
  ree  10 99 11.01E6
  ro1   8  5 50
  ro2   7 99 25
  rp    3  4 9.049E3
  vb    9  0 dc 0
  vc    3 53 dc 2
  ve   54  4 dc 2
  vlim  7  8 dc 0
  vlp  91  0 dc 20
  vln   0 92 dc 20
.model dx D(Is=800.0E-18)
.model qx NPN(Is=800.0E-18 Bf=112.5)
.ends

*$
*
* connections:   non-inverting input
*                | inverting input
*                | | positive power supply
*                | | | negative power supply
*                | | | | output
*                | | | | |
.subckt mb47082  1 2 3 4 5
*
  c1   11 12 2.887E-12
  c2    6  7 10.00E-12
  dc    5 53 dx
  de   54  5 dx
  dlp  90 91 dx
  dln  92 90 dx
  dp    4  3 dx
  egnd 99  0 poly(2) (3,0) (4,0) 0 .5 .5
  fb    7 99 poly(5) vb vc ve vlp vln 0 42.44E6 -42E6 42E6 42E6 -42E6
  ga    6  0 11 12 188.5E-6
  gcm   0  6 10 99 9.447E-9
  iss  10  4 dc 130.0E-6
  hlim 90  0 vlim 1K
  j1   11  2 10 jx
  j2   12  1 10 jx
  r2    6  9 100.0E3
  rd1   3 11 5.305E3
  rd2   3 12 5.305E3
  ro1   8  5 50
  ro2   7 99 25
  rp    3  4 8.571E3
  rss  10 99 1.538E6
  vb    9  0 dc 0
  vc    3 53 dc 3
  ve   54  4 dc 3
  vlim  7  8 dc 0
  vlp  91  0 dc 25
  vln   0 92 dc 25
.model dx D(Is=800.0E-18)
.model jx NJF(Is=15.00E-12 Beta=273.3E-6 Vto=-1)
.ends

*$
*
* connections:   non-inverting input
*                | inverting input
*                | | positive power supply
*                | | | negative power supply
*                | | | | output
*                | | | | |
.subckt mb47358  1 2 3 4 5
*
  c1   11 12 8.660E-12
  c2    6  7 30.00E-12
  dc    5 53 dx
  de   54  5 dx
  dlp  90 91 dx
  dln  92 90 dx
  dp    4  3 dx
  egnd 99  0 poly(2) (3,0) (4,0) 0 .5 .5
  fb    7 99 poly(5) vb vc ve vlp vln 0 21.22E6 -21E6 21E6 21E6 -21E6
  ga    6  0 11 12 188.5E-6
  gcm   0  6 10 99 10.60E-9
  iee   3 10 dc 60.09E-6
  hlim 90  0 vlim 1K
  q1   11  2 13 qx
  q2   12  1 14 qx
  r2    6  9 100.0E3
  rc1   4 11 5.305E3
  rc2   4 12 5.305E3
  re1  13 10 4.436E3
  re2  14 10 4.436E3
  ree  10 99 3.328E6
  ro1   8  5 50
  ro2   7 99 25
  rp    3  4 503
  vb    9  0 dc 0
  vc    3 53 dc .9
  ve   54  4 dc .2
  vlim  7  8 dc 0
  vlp  91  0 dc 40
  vln   0 92 dc 40
.model dx D(Is=800.0E-18)
.model qx PNP(Is=800.0E-18 Bf=666.7)
.ends
*$
*
* connections:   non-inverting input
*                | inverting input
*                | | positive power supply
*                | | | negative power supply
*                | | | | output
*                | | | | |
.subckt mb47833  1 2 3 4 5
*
  c1   11 12 8.660E-12
  c2    6  7 30.00E-12
  dc    5 53 dx
  de   54  5 dx
  dlp  90 91 dx
  dln  92 90 dx
  dp    4  3 dx
  egnd 99  0 poly(2) (3,0) (4,0) 0 .5 .5
  fb    7 99 poly(5) vb vc ve vlp vln 0 2.581E6 -2E6 2E6 2E6 -2E6
  ga    6  0 11 12 1.885E-3
  gcm   0  6 10 99 18.85E-9
  iee   3 10 dc 211.0E-6
  hlim 90  0 vlim 1K
  q1   11  2 13 qx
  q2   12  1 14 qx
  r2    6  9 100.0E3
  rc1   4 11 530.5
  rc2   4 12 530.5
  re1  13 10 282.8
  re2  14 10 282.8
  ree  10 99 947.9E3
  ro1   8  5 45
  ro2   7 99 65
  rp    3  4 13.10E3
  vb    9  0 dc 0
  vc    3 53 dc 1.600
  ve   54  4 dc 1.600
  vlim  7  8 dc 0
  vlp  91  0 dc 29
  vln   0 92 dc 29
.model dx D(Is=800.0E-18)
.model qx PNP(Is=800.0E-18 Bf=210)
.ends
*$
*
* connections:   non-inverting input
*                | inverting input
*                | | positive power supply
*                | | | negative power supply
*                | | | | output
*                | | | | |
.subckt M5216    1 2 3 4 5
*
  c1   11 12 8.660E-12
  c2    6  7 30.00E-12
  dc    5 53 dx
  de   54  5 dx
  dlp  90 91 dx
  dln  92 90 dx
  dp    4  3 dx
  egnd 99  0 poly(2) (3,0) (4,0) 0 .5 .5
  fb    7 99 poly(5) vb vc ve vlp vln 0 6.706E6 -6E6 6E6 6E6 -6E6
  ga    6  0 11 12 1.885E-3
  gcm   0  6 10 99 58.90E-9
  iee  10  4 dc 241.0E-6
  hlim 90  0 vlim 1K
  q1   11  2 13 qx
  q2   12  1 14 qx
  r2    6  9 100.0E3
  rc1   3 11 530.5
  rc2   3 12 530.5
  re1  13 10 313.7
  re2  14 10 313.7
  ree  10 99 829.9E3
  ro1   8  5 50
  ro2   7 99 25
  rp    3  4 2.551E3
  vb    9  0 dc 0
  vc    3 53 dc 2
  ve   54  4 dc 2
  vlim  7  8 dc 0
  vlp  91  0 dc 20
  vln   0 92 dc 20
.model dx D(Is=800.0E-18)
.model qx NPN(Is=800.0E-18 Bf=240)
.ends
*$
*
* connections:   non-inverting input
*                | inverting input
*                | | positive power supply
*                | | | negative power supply
*                | | | | output
*                | | | | |
.subckt M5220    1 2 3 4 5
*
  c1   11 12 2.836E-12
  c2    6  7 1.000E-12
  dc    5 53 dx
  de   54  5 dx
  dlp  90 91 dx
  dln  92 90 dx
  dp    4  3 dx
  egnd 99  0 poly(2) (3,0) (4,0) 0 .5 .5
  fb    7 99 poly(5) vb vc ve vlp vln 0 142.2E6 -140E6 140E6 140E6 -140E6
  ga    6  0 11 12 125.7E-6
  gcm   0  6 10 99 2.244E-9
  iee   3 10 dc 7.900E-6
  hlim 90  0 vlim 1K
  q1   11  2 13 qx
  q2   12  1 14 qx
  r2    6  9 100.0E3
  rc1   4 11 7.958E3
  rc2   4 12 7.958E3
  re1  13 10 1.000E-30
  re2  14 10 1.000E-30
  ree  10 99 25.32E6
  ro1   8  5 50
  ro2   7 99 25
  rp    3  4 3.242E3
  vb    9  0 dc 0
  vc    3 53 dc 8.300
  ve   54  4 dc 8.300
  vlim  7  8 dc 0
  vlp  91  0 dc 20
  vln   0 92 dc 20
.model dx D(Is=800.0E-18)
.model qx PNP(Is=800.0E-18 Bf=4.643)
.ends
*$
*
* connections:   non-inverting input
*                | inverting input
*                | | positive power supply
*                | | | negative power supply
*                | | | | output
*                | | | | |
.subckt M5228    1 2 3 4 5
*
  c1   11 12 8.660E-12
  c2    6  7 30.00E-12
  dc    5 53 dx
  de   54  5 dx
  dlp  90 91 dx
  dln  92 90 dx
  dp    4  3 dx
  egnd 99  0 poly(2) (3,0) (4,0) 0 .5 .5
  fb    7 99 poly(5) vb vc ve vlp vln 0 6.706E6 -6E6 6E6 6E6 -6E6
  ga    6  0 11 12 1.885E-3
  gcm   0  6 10 99 58.90E-9
  iee   3 10 dc 241.0E-6
  hlim 90  0 vlim 1K
  q1   11  2 13 qx
  q2   12  1 14 qx
  r2    6  9 100.0E3
  rc1   4 11 530.5
  rc2   4 12 530.5
  re1  13 10 313.7
  re2  14 10 313.7
  ree  10 99 829.9E3
  ro1   8  5 50
  ro2   7 99 25
  rp    3  4 2.551E3
  vb    9  0 dc 0
  vc    3 53 dc 2
  ve   54  4 dc 2
  vlim  7  8 dc 0
  vlp  91  0 dc 20
  vln   0 92 dc 20
.model dx D(Is=800.0E-18)
.model qx PNP(Is=800.0E-18 Bf=240)
.ends
*$
* connections:   non-inverting input
*                | inverting input
*                | | positive power supply
*                | | | negative power supply
*                | | | | output
*                | | | | |
.subckt M5238   1 2 3 4 5
*
  c1   11 12 2.887E-12
  c2    6  7 10.00E-12
  css  10 99 1.000E-30
  dc    5 53 dx
  de   54  5 dx
  dlp  90 91 dx
  dln  92 90 dx
  dp    4  3 dx
  egnd 99  0 poly(2) (3,0) (4,0) 0 .5 .5
  fb    7 99 poly(5) vb vc ve vlp vln 0 636.6E6 -640E6 640E6 640E6 -640E6
  ga    6  0 11 12 12.57E-6
  gcm   0  6 10 99 1.995E-9
  iss   3 10 dc 200.0E-6
  hlim 90  0 vlim 1K
  j1   11  2 10 jx
  j2   12  1 10 jx
  r2    6  9 100.0E3
  rd1   4 11 79.58E3
  rd2   4 12 79.58E3
  ro1   8  5 50
  ro2   7 99 25
  rp    3  4 2.045E3
  rss  10 99 1.000E6
  vb    9  0 dc 0
  vc    3 53 dc 1
  ve   54  4 dc 1
  vlim  7  8 dc 0
  vlp  91  0 dc 50
  vln   0 92 dc 50
.model dx D(Is=800.0E-18)
.model jx PJF(Is=15.00E-12 Beta=789.6E-9 Vto=-1)
.ends
*$
*
* connections:   non-inverting input
*                | inverting input
*                | | positive power supply
*                | | | negative power supply
*                | | | | output
*                | | | | |
.subckt M5260    1 2 3 4 5
*
  c1   11 12 8.660E-12
  c2    6  7 30.00E-12
  dc    5 53 dx
  de   54  5 dx
  dlp  90 91 dx
  dln  92 90 dx
  dp    4  3 dx
  egnd 99  0 poly(2) (3,0) (4,0) 0 .5 .5
  fb    7 99 poly(5) vb vc ve vlp vln 0 6.706E6 -6E6 6E6 6E6 -6E6
  ga    6  0 11 12 1.885E-3
  gcm   0  6 10 99 58.90E-9
  iee   3 10 dc 241.0E-6
  hlim 90  0 vlim 1K
  q1   11  2 13 qx
  q2   12  1 14 qx
  r2    6  9 100.0E3
  rc1   4 11 530.5
  rc2   4 12 530.5
  re1  13 10 313.7
  re2  14 10 313.7
  ree  10 99 829.9E3
  ro1   8  5 50
  ro2   7 99 25
  rp    3  4 2.551E3
  vb    9  0 dc 0
  vc    3 53 dc 2
  ve   54  4 dc 2
  vlim  7  8 dc 0
  vlp  91  0 dc 20
  vln   0 92 dc 20
.model dx D(Is=800.0E-18)
.model qx PNP(Is=800.0E-18 Bf=240)
.ends
*$
*
* connections:   non-inverting input
*                | inverting input
*                | | positive power supply
*                | | | negative power supply
*                | | | | output
*                | | | | |  compensation
*                | | | | | / \
.subckt TA75060P 1 2 3 4 5 6 7
*
  c1   11 12 2.887E-12
  dc    5 53 dx
  de   54  5 dx
  dlp  90 91 dx
  dln  92 90 dx
  dp    4  3 dx
  egnd 99  0 poly(2) (3,0) (4,0) 0 .5 .5
  fb    7 99 poly(5) vb vc ve vlp vln 0 636.6E3 -640E3 640E3 640E3 -640E3
  ga    6  0 11 12 188.5E-6
  gcm   0  6 10 99 29.87E-9
  iss   3 10 dc 105.0E-6
  hlim 90  0 vlim 1K
  j1   11  2 10 jx
  j2   12  1 10 jx
  r2    6  9 100.0E3
  rd1   4 11 5.305E3
  rd2   4 12 5.305E3
  ro1   8  5 50
  ro2   7 99 50
  rp    3  4 150.0E3
  rss  10 99 1.905E6
  vb    9  0 dc 0
  vc    3 53 dc 1.500
  ve   54  4 dc 1.500
  vlim  7  8 dc 0
  vlp  91  0 dc 25
  vln   0 92 dc 25
.model dx D(Is=800.0E-18)
.model jx PJF(Is=15.00E-12 Beta=338.4E-6 Vto=-1)
.ends

*$
*
* connections:   non-inverting input
*                | inverting input
*                | | positive power supply
*                | | | negative power supply
*                | | | | output
*                | | | | |
.subckt ta75061p 1 2 3 4 5
*
  c1   11 12 2.887E-12
  c2    6  7 20.00E-12
  dc    5 53 dx
  de   54  5 dx
  dlp  90 91 dx
  dln  92 90 dx
  dp    4  3 dx
  egnd 99  0 poly(2) (3,0) (4,0) 0 .5 .5
  fb    7 99 poly(5) vb vc ve vlp vln 0 127.3E6 -130E6 130E6 130E6 -130E6
  ga    6  0 11 12 125.7E-6
  gcm   0  6 10 99 19.92E-9
  iss   3 10 dc 70.00E-6
  hlim 90  0 vlim 1K
  j1   11  2 10 jx
  j2   12  1 10 jx
  r2    6  9 100.0E3
  rd1   4 11 7.958E3
  rd2   4 12 7.958E3
  ro1   8  5 50
  ro2   7 99 25
  rp    3  4 150.0E3
  rss  10 99 2.857E6
  vb    9  0 dc 0
  vc    3 53 dc 1.500
  ve   54  4 dc 1.500
  vlim  7  8 dc 0
  vlp  91  0 dc 20
  vln   0 92 dc 20
.model dx D(Is=800.0E-18)
.model jx PJF(Is=15.00E-12 Beta=225.6E-6 Vto=-1)
.ends
*$
*
* connections:   non-inverting input
*                | inverting input
*                | | positive power supply
*                | | | negative power supply
*                | | | | output
*                | | | | |
.subckt ta75062p 1 2 3 4 5
*
  c1   11 12 2.887E-12
  c2    6  7 10.00E-12
  dc    5 53 dx
  de   54  5 dx
  dlp  90 91 dx
  dln  92 90 dx
  dp    4  3 dx
  egnd 99  0 poly(2) (3,0) (4,0) 0 .5 .5
  fb    7 99 poly(5) vb vc ve vlp vln 0 127.3E6 -130E6 130E6 130E6 -130E6
  ga    6  0 11 12 62.83E-6
  gcm   0  6 10 99 9.958E-9
  iss   3 10 dc 35.00E-6
  hlim 90  0 vlim 1K
  j1   11  2 10 jx
  j2   12  1 10 jx
  r2    6  9 100.0E3
  rd1   4 11 15.92E3
  rd2   4 12 15.92E3
  ro1   8  5 50
  ro2   7 99 25
  rp    3  4 150.0E3
  rss  10 99 5.714E6
  vb    9  0 dc 0
  vc    3 53 dc 1.500
  ve   54  4 dc 1.500
  vlim  7  8 dc 0
  vlp  91  0 dc 20
  vln   0 92 dc 20
.model dx D(Is=800.0E-18)
.model jx PJF(Is=15.00E-12 Beta=112.8E-6 Vto=-1)
.ends
*$
*
* connections:   non-inverting input
*                | inverting input
*                | | positive power supply
*                | | | negative power supply
*                | | | | output
*                | | | | |
.subckt ta75064p 1 2 3 4 5
*
  c1   11 12 2.887E-12
  c2    6  7 10.00E-12
  dc    5 53 dx
  de   54  5 dx
  dlp  90 91 dx
  dln  92 90 dx
  dp    4  3 dx
  egnd 99  0 poly(2) (3,0) (4,0) 0 .5 .5
  fb    7 99 poly(5) vb vc ve vlp vln 0 127.3E6 -130E6 130E6 130E6 -130E6
  ga    6  0 11 12 62.83E-6
  gcm   0  6 10 99 9.958E-9
  iss   3 10 dc 35.00E-6
  hlim 90  0 vlim 1K
  j1   11  2 10 jx
  j2   12  1 10 jx
  r2    6  9 100.0E3
  rd1   4 11 15.92E3
  rd2   4 12 15.92E3
  ro1   8  5 50
  ro2   7 99 25
  rp    3  4 9.000E3
  rss  10 99 5.714E6
  vb    9  0 dc 0
  vc    3 53 dc 1.500
  ve   54  4 dc 1.500
  vlim  7  8 dc 0
  vlp  91  0 dc 20
  vln   0 92 dc 20
.model dx D(Is=800.0E-18)
.model jx PJF(Is=15.00E-12 Beta=112.8E-6 Vto=-1)
.ends

*$
*
* connections:   non-inverting input
*                | inverting input
*                | | positive power supply
*                | | | negative power supply
*                | | | | output
*                | | | | |  compensation
*                | | | | | / \
.subckt ta75070p 1 2 3 4 5 6 7
*
  c1   11 12 2.887E-12
  dc    5 53 dx
  de   54  5 dx
  dlp  90 91 dx
  dln  92 90 dx
  dp    4  3 dx
  egnd 99  0 poly(2) (3,0) (4,0) 0 .5 .5
  fb    7 99 poly(5) vb vc ve vlp vln 0 127.3E6 -130E6 130E6 130E6 -130E6
  ga    6  0 11 12 339.3E-6
  gcm   0  6 10 99 53.77E-9
  iss   3 10 dc 234.0E-6
  hlim 90  0 vlim 1K
  j1   11  2 10 jx
  j2   12  1 10 jx
  r2    6  9 100.0E3
  rd1   4 11 2.947E3
  rd2   4 12 2.947E3
  ro1   8  5 50
  ro2   7 99 25
  rp    3  4 18.00E3
  rss  10 99 854.7E3
  vb    9  0 dc 0
  vc    3 53 dc 2
  ve   54  4 dc 2
  vlim  7  8 dc 0
  vlp  91  0 dc 20
  vln   0 92 dc 20
.model dx D(Is=800.0E-18)
.model jx PJF(Is=15.00E-12 Beta=492.0E-6 Vto=-1)
.ends

*$
*
* connections:   non-inverting input
*                | inverting input
*                | | positive power supply
*                | | | negative power supply
*                | | | | output
*                | | | | |
.subckt ta75071p 1 2 3 4 5
*
  c1   11 12 2.887E-12
  c2    6  7 10.00E-12
  dc    5 53 dx
  de   54  5 dx
  dlp  90 91 dx
  dln  92 90 dx
  dp    4  3 dx
  egnd 99  0 poly(2) (3,0) (4,0) 0 .5 .5
  fb    7 99 poly(5) vb vc ve vlp vln 0 127.3E6 -130E6 130E6 130E6 -130E6
  ga    6  0 11 12 188.5E-6
  gcm   0  6 10 99 29.87E-9
  iss   3 10 dc 130.0E-6
  hlim 90  0 vlim 1K
  j1   11  2 10 jx
  j2   12  1 10 jx
  r2    6  9 100.0E3
  rd1   4 11 5.305E3
  rd2   4 12 5.305E3
  ro1   8  5 50
  ro2   7 99 25
  rp    3  4 21.43E3
  rss  10 99 1.538E6
  vb    9  0 dc 0
  vc    3 53 dc 1
  ve   54  4 dc 1
  vlim  7  8 dc 0
  vlp  91  0 dc 20
  vln   0 92 dc 20
.model dx D(Is=800.0E-18)
.model jx PJF(Is=15.00E-12 Beta=273.3E-6 Vto=-1)
.ends

*$
*
* connections:   non-inverting input
*                | inverting input
*                | | positive power supply
*                | | | negative power supply
*                | | | | output
*                | | | | |
.subckt ta75072p 1 2 3 4 5
*
  c1   11 12 2.887E-12
  c2    6  7 10.00E-12
  dc    5 53 dx
  de   54  5 dx
  dlp  90 91 dx
  dln  92 90 dx
  dp    4  3 dx
  egnd 99  0 poly(2) (3,0) (4,0) 0 .5 .5
  fb    7 99 poly(5) vb vc ve vlp vln 0 127.3E6 -130E6 130E6 130E6 -130E6
  ga    6  0 11 12 188.5E-6
  gcm   0  6 10 99 29.87E-9
  iss   3 10 dc 130.0E-6
  hlim 90  0 vlim 1K
  j1   11  2 10 jx
  j2   12  1 10 jx
  r2    6  9 100.0E3
  rd1   4 11 5.305E3
  rd2   4 12 5.305E3
  ro1   8  5 50
  ro2   7 99 25
  rp    3  4 10.71E3
  rss  10 99 1.538E6
  vb    9  0 dc 0
  vc    3 53 dc 1
  ve   54  4 dc 1
  vlim  7  8 dc 0
  vlp  91  0 dc 20
  vln   0 92 dc 20
.model dx D(Is=800.0E-18)
.model jx PJF(Is=15.00E-12 Beta=273.3E-6 Vto=-1)
.ends

*$
*
* connections:   non-inverting input
*                | inverting input
*                | | positive power supply
*                | | | negative power supply
*                | | | | output
*                | | | | |
.subckt ta75074p 1 2 3 4 5
*
  c1   11 12 2.887E-12
  c2    6  7 10.00E-12
  dc    5 53 dx
  de   54  5 dx
  dlp  90 91 dx
  dln  92 90 dx
  dp    4  3 dx
  egnd 99  0 poly(2) (3,0) (4,0) 0 .5 .5
  fb    7 99 poly(5) vb vc ve vlp vln 0 127.3E6 -130E6 130E6 130E6 -130E6
  ga    6  0 11 12 188.5E-6
  gcm   0  6 10 99 29.87E-9
  iss   3 10 dc 130.0E-6
  hlim 90  0 vlim 1K
  j1   11  2 10 jx
  j2   12  1 10 jx
  r2    6  9 100.0E3
  rd1   4 11 5.305E3
  rd2   4 12 5.305E3
  ro1   8  5 50
  ro2   7 99 25
  rp    3  4 5.357E3
  rss  10 99 1.538E6
  vb    9  0 dc 0
  vc    3 53 dc 1
  ve   54  4 dc 1
  vlim  7  8 dc 0
  vlp  91  0 dc 20
  vln   0 92 dc 20
.model dx D(Is=800.0E-18)
.model jx PJF(Is=15.00E-12 Beta=273.3E-6 Vto=-1)
.ends

*$
*
* connections:   non-inverting input
*                | inverting input
*                | | positive power supply
*                | | | negative power supply
*                | | | | output
*                | | | | |
.subckt ta75254P 1 2 3 4 5
*
  c1   11 12 8.660E-12
  c2    6  7 30.00E-12
  dc    5 53 dx
  de   54  5 dx
  dlp  90 91 dx
  dln  92 90 dx
  dp    4  3 dx
  egnd 99  0 poly(2) (3,0) (4,0) 0 .5 .5
  fb    7 99 poly(5) vb vc ve vlp vln 0 134.2E6 -130E6 130E6 130E6 -130E6
  ga    6  0 11 12 94.25E-6
  gcm   0  6 10 99 298.0E-12
  iee  10  4 dc 6.040E-6
  hlim 90  0 vlim 1K
  q1   11  2 13 qx
  q2   12  1 14 qx
  r2    6  9 100.0E3
  rc1   3 11 10.61E3
  rc2   3 12 10.61E3
  re1  13 10 1.976E3
  re2  14 10 1.976E3
  ree  10 99 33.11E6
  ro1   8  5 50
  ro2   7 99 25
  rp    3  4 9.393E3
  vb    9  0 dc 0
  vc    3 53 dc 2
  ve   54  4 dc 2
  vlim  7  8 dc 0
  vlp  91  0 dc 25
  vln   0 92 dc 25
.model dx D(Is=800.0E-18)
.model qx NPN(Is=800.0E-18 Bf=150)
.ends

*$
*
* connections:   non-inverting input
*                | inverting input
*                | | positive power supply