* Library of Japanese Power MOSFET Models

*  Copyright OrCAD, Inc. 1998 All Rights Reserved.

* $Revision:   1.8  $
* $Author:   rperez  $
* $Date:   17 Nov 1998 10:47:44  $
*
* ---------------------------------------------------------------------------
* The parameters in this model library were derived from the data sheets for
* each part.  Each part was characterized using the Parts option.
* ---------------------------------------------------------------------------
*$
.model M2SJ102  PMOS(Level=3 Gamma=0 Delta=0 Eta=0 Theta=0 Kappa=0.2 Vmax=0 Xj=0
+               Tox=2u Uo=300 Phi=.6 Kp=517.6n W=.55 L=2u Rs=20m Vto=-.8464
+               Rd=0 Rds=50K Cgso=266.4p Cgdo=684.2p Cbd=1.598n Mj=.5 Pb=.8
+               Fc=.5 Rg=43.92 Is=170.4E-18 N=.7688 Rb=51.08m)
*$
.model M2SJ114  PMOS(Level=3 Gamma=0 Delta=0 Eta=0 Theta=0 Kappa=0.2 Vmax=0 Xj=0
+               Tox=2u Uo=300 Phi=.6 Kp=540.1n W=1.1 L=2u Rs=20m Vto=-.9423
+               Rd=0 Rds=160K Cgso=593.2p Cgdo=250.4p Cbd=746.2p Mj=.5 Pb=.8
+               Fc=.5 Rg=28.78 Is=16.48n N=1.62 Rb=18.86m)
*$
.MODEL M2SJ115 PMOS LEVEL=3 L=2.000E-6 W=2.200 KP=520.4E-9 RS=10.00E-3 RD=.296
+ VTO=.6733 RDS=1.000E6 TOX=2.000E-6 CGSO=40.00E-12 CGDO=10.00E-12 CBD=1.980E-9
+ MJ=.4189 PB=.3905 RG=211.5 RB=1.000E-3 GAMMA=0 KAPPA=0 UO=300
*$
.model M2SJ116  PMOS(Level=3 Gamma=0 Delta=0 Eta=0 Theta=0 Kappa=0.2 Vmax=0 Xj=0
+               Tox=2u Uo=300 Phi=.6 Kp=502.5n W=1.2 L=2u Rs=20m Vto=-1.018
+               Rd=0 Rds=320K Cgso=812.9p Cgdo=74.73p Cbd=909.7p Mj=.5 Pb=.8
+               Fc=.5 Rg=34.65 Is=138.4n N=1.777 Rb=20.43m)
*$
.model M2SJ118  PMOS(Level=3 Gamma=0 Delta=0 Eta=0 Theta=0 Kappa=0.2 Vmax=0 Xj=0
+               Tox=2u Uo=300 Phi=.6 Kp=538.3n W=2 L=2u Rs=20m Vto=-3.119
+               Rd=.45 Rds=120K Cgso=327.4p Cgdo=104.8p Cbd=1.305n Mj=.9848
+               Pb=3 Fc=.5 Rg=20.08 Is=10f N=1 Rb=1m)
*$
.model M2SJ119  PMOS(Level=3 Gamma=0 Delta=0 Eta=0 Theta=0 Kappa=0.2 Vmax=0 Xj=0
+               Tox=2u Uo=300 Phi=.6 Kp=538.3n W=2 L=2u Rs=20m Vto=-3.119
+               Rd=.45 Rds=140K Cgso=327.4p Cgdo=104.8p Cbd=1.305n Mj=.9848
+               Pb=3 Fc=.5 Rg=20.08 Is=10f N=1 Rb=1m)
*$
.model M2SJ120  PMOS(Level=3 Gamma=0 Delta=0 Eta=0 Theta=0 Kappa=0.2 Vmax=0 Xj=0
+               Tox=2u Uo=300 Phi=.6 Kp=519n W=.2 L=2u Rs=20m Vto=-1.661 Rd=.2
+               Rds=350K Cgso=0 Cgdo=876.1p Cbd=291.4p Mj=.4645 Pb=3 Fc=.5
+               Rg=3.14 Is=10f N=1 Rb=1m)
*$
.model M2SJ122  PMOS(Level=3 Gamma=0 Delta=0 Eta=0 Theta=0 Kappa=0.2 Vmax=0 Xj=0
+               Tox=2u Uo=300 Phi=.6 Kp=524.2n W=2.4 L=2u Rs=0 Vto=-3.251
+               Rd=10.56m Rds=50K Cgso=204.1p Cgdo=230.1p Cbd=5.067n Mj=.5793
+               Pb=.3905 Fc=.5 Rg=5.574 Is=10E-21 N=.6205 Rb=12.98m)
*$
.model M2SJ123  PMOS(Level=3 Gamma=0 Delta=0 Eta=0 Theta=0 Kappa=0.2 Vmax=0 Xj=0
+               Tox=2u Uo=300 Phi=.6 Kp=517.8n W=2.5 L=2u Rs=20m Vto=-1.567
+               Rd=10m Rds=70K Cgso=4p Cgdo=1p Cbd=2.466n Mj=.4316 Pb=.3915
+               Fc=.5 Rg=0 Is=10f N=1 Rb=1m)
*$
.model M2SJ128  PMOS(Level=3 Gamma=0 Delta=0 Eta=0 Theta=0 Kappa=0.2 Vmax=0 Xj=0
+               Tox=2u Uo=300 Phi=.6 Kp=516.1n W=4.3 L=2u Rs=20m Vto=-1.855
+               Rd=.668 Rds=10MEG Cgso=4p Cgdo=1p Cbd=421.9p Mj=.517 Pb=3 Fc=.5
+               Rg=277.2 Is=1f N=1 Rb=1m)
*$
.model M2SJ132  PMOS(Level=3 Gamma=0 Delta=0 Eta=0 Theta=0 Kappa=0.2 Vmax=0 Xj=0
+               Tox=2u Uo=300 Phi=.6 Kp=514.6n W=4.9 L=2u Rs=20m Vto=-2.035
+               Rd=.1321 Rds=3MEG Cgso=4p Cgdo=1p Cbd=683.2p Mj=.4219 Pb=.871
+               Fc=.5 Rg=466.9 Is=10E-21 N=.5602 Rb=0)
*$
.model M2SJ133  PMOS(Level=3 Gamma=0 Delta=0 Eta=0 Theta=0 Kappa=0.2 Vmax=0 Xj=0
+               Tox=2u Uo=300 Phi=.6 Kp=20u W=.5 L=2u Rs=20m Vto=-3 Rd=10m
+               Rds=1MEG Cgso=4p Cgdo=1p Cbd=1n Mj=.5 Pb=.8 Fc=.5 Rg=5 Is=10f
+               N=1 Rb=1m)
*$
.model M2SJ134  PMOS(Level=3 Gamma=0 Delta=0 Eta=0 Theta=0 Kappa=0.2 Vmax=0 Xj=0
+               Tox=2u Uo=300 Phi=.6 Kp=1u W=3.6 L=2u Rs=20m Vto=-1.354
+               Rd=.1679 Rds=10MEG Cgso=4p Cgdo=1p Cbd=1.54n Mj=.451 Pb=.4295
+               Fc=.5 Rg=160.6 Is=7.133f N=1 Rb=10m)
*$
.model M2SJ135  PMOS(Level=3 Gamma=0 Delta=0 Eta=0 Theta=0 Kappa=0.2 Vmax=0 Xj=0
+               Tox=2u Uo=300 Phi=.6 Kp=516.5n W=7.819 L=2u Rs=0 Vto=-1.774
+               Rd=.25 Rds=10MEG Cgso=4p Cgdo=1p Cbd=2.055n Mj=.5093 Pb=.3905
+               Fc=.5 Rg=138.1 Is=1f N=1 Rb=1m)
*$
.model M2SJ136  PMOS(Level=3 Gamma=0 Delta=0 Eta=0 Theta=0 Kappa=0.2 Vmax=0 Xj=0
+               Tox=2u Uo=300 Phi=.6 Kp=5u W=1 L=2u Rs=10m Vto=-2.021 Rd=.1245
+               Rds=6MEG Cgso=4p Cgdo=1p Cbd=1.506n Mj=.4641 Pb=.6857 Fc=.5
+               Rg=440 Is=10E-21 N=.15 Rb=0)
*$
.model M2SJ137  PMOS(Level=3 Gamma=0 Delta=0 Eta=0 Theta=0 Kappa=0.2 Vmax=0 Xj=0
+               Tox=2u Uo=300 Phi=.6 Kp=516.9n W=6.1 L=2u Rs=20m Vto=-2.278
+               Rd=.1206 Rds=6MEG Cgso=4p Cgdo=1p Cbd=1.49n Mj=.4681 Pb=.7277
+               Fc=.5 Rg=698.4 Is=1f N=1 Rb=10m)
*$
.model M2SJ140  PMOS(Level=3 Gamma=0 Delta=0 Eta=0 Theta=0 Kappa=0.2 Vmax=0 Xj=0
+               Tox=2u Uo=300 Phi=.6 Kp=1.3u W=4.8 L=2u Rs=10m Vto=-1.141
+               Rd=61.99m Rds=6MEG Cgso=4p Cgdo=1p Cbd=1.454n Mj=.5248 Pb=2.203
+               Fc=.5 Rg=249.2 Is=1f N=1 Rb=10m)
*$
.model M2SJ141  PMOS(Level=3 Gamma=0 Delta=0 Eta=0 Theta=0 Kappa=0.2 Vmax=0 Xj=0
+               Tox=2u Uo=300 Phi=.6 Kp=503.8n W=17 L=2u Rs=20m Vto=-1.599
+               Rd=89.74m Rds=6MEG Cgso=4p Cgdo=1p Cbd=1.455n Mj=.5 Pb=1.953
+               Fc=.5 Rg=158.8 Is=1f N=1 Rb=29.8m)
*$
.model M2SJ142  PMOS(Level=3 Gamma=0 Delta=0 Eta=0 Theta=0 Kappa=0.2 Vmax=0 Xj=0
+               Tox=2u Uo=300 Phi=.6 Kp=509.6n W=18 L=2u Rs=20m Vto=-1.518
+               Rd=.1027 Rds=10MEG Cgso=4p Cgdo=1p Cbd=1.516n Mj=.5465 Pb=2.779
+               Fc=.5 Rg=131.9 Is=1f N=1 Rb=21.7m)
*$
.model M2SJ143  PMOS(Level=3 Gamma=0 Delta=0 Eta=0 Theta=0 Kappa=0.2 Vmax=0 Xj=0
+               Tox=2u Uo=300 Phi=.6 Kp=507.9n W=19 L=2u Rs=20m Vto=-1.547
+               Rd=64.85m Rds=6MEG Cgso=4p Cgdo=1p Cbd=2.168n Mj=.5197 Pb=1.199
+               Fc=.5 Rg=140.7 Is=1f N=1 Rb=10m)
*$
.model M2SK1029 NMOS(Level=3 Gamma=0 Delta=0 Eta=0 Theta=0 Kappa=0.2 Vmax=0 Xj=0
+               Tox=2u Uo=600 Phi=.6 Kp=4u W=1.35 L=2u Rs=20m Vto=2.908 Rd=.274
+               Rds=500K Cgso=893.8p Cgdo=124.2p Cbd=4.745n Mj=.7605 Pb=.4081
+               Fc=.5 Rg=0 Is=1f N=1 Rb=10m)
*$
.model M2SK1044 NMOS(Level=3 Gamma=0 Delta=0 Eta=0 Theta=0 Kappa=0.2 Vmax=0 Xj=0
+               Tox=2u Uo=600 Phi=.6 Kp=1.022u W=3.8 L=2u Rs=20m Vto=3.293
+               Rd=1.413 Rds=800K Cgso=366.9p Cgdo=24.34p Cbd=2.781n Mj=.7919
+               Pb=.3905 Fc=.5 Rg=0 Is=10f N=1 Rb=1m)
*$
.model M2SK1045 NMOS(Level=3 Gamma=0 Delta=0 Eta=0 Theta=0 Kappa=0.2 Vmax=0 Xj=0
+               Tox=2u Uo=600 Phi=.6 Kp=1.022u W=3.8 L=2u Rs=20m Vto=3.293
+               Rd=1.413 Rds=900K Cgso=366.9p Cgdo=24.34p Cbd=2.781n Mj=.7919
+               Pb=.3905 Fc=.5 Rg=0 Is=10f N=1 Rb=1m)
*$
.model M2SK1047 NMOS(Level=3 Gamma=0 Delta=0 Eta=0 Theta=0 Kappa=0.2 Vmax=0 Xj=0
+               Tox=2u Uo=600 Phi=.6 Kp=1.036u W=5.4 L=2u Rs=20m Vto=3.149
+               Rd=.1708 Rds=250K Cgso=382.7p Cgdo=90.4p Cbd=2.891n Mj=1.2
+               Pb=1.406 Fc=.5 Rg=0 Is=10f N=1 Rb=1m)
*$
.model M2SK1048 NMOS(Level=3 Gamma=0 Delta=0 Eta=0 Theta=0 Kappa=0.2 Vmax=0 Xj=0
+               Tox=2u Uo=600 Phi=.6 Kp=1.036u W=5.4 L=2u Rs=20m Vto=3.149
+               Rd=.1708 Rds=250K Cgso=382.7p Cgdo=90.4p Cbd=2.891n Mj=1.2
+               Pb=1.406 Fc=.5 Rg=0 Is=10f N=1 Rb=1m)
*$
.model M2SK1049 NMOS(Level=3 Gamma=0 Delta=0 Eta=0 Theta=0 Kappa=0.2 Vmax=0 Xj=0
+               Tox=2u Uo=600 Phi=.6 Kp=1.036u W=4.7 L=2u Rs=20m Vto=3.013
+               Rd=.4072 Rds=450K Cgso=560.5p Cgdo=24.79p Cbd=3.095n Mj=.6915
+               Pb=.3905 Fc=.5 Rg=0 Is=10f N=1 Rb=1m)
*$
.model M2SK1050 NMOS(Level=3 Gamma=0 Delta=0 Eta=0 Theta=0 Kappa=0.2 Vmax=0 Xj=0
+               Tox=2u Uo=600 Phi=.6 Kp=1.036u W=4.8 L=2u Rs=10m Vto=3.372
+               Rd=.4899 Rds=450K Cgso=523.6p Cgdo=20.05p Cbd=3.044n Mj=.6785
+               Pb=.3905 Fc=.5 Rg=0 Is=10f N=1 Rb=1m)
*$
.model M2SK1051 NMOS(Level=3 Gamma=0 Delta=0 Eta=0 Theta=0 Kappa=0.2 Vmax=0 Xj=0
+               Tox=2u Uo=600 Phi=.6 Kp=1.04u W=8.1 L=2u Rs=15m Vto=2.775
+               Rd=10E-21 Rds=50K Cgso=327.2p Cgdo=17.67p Cbd=6.336n Mj=.5052
+               Pb=.3905 Fc=.5 Rg=20.42 Is=543.4f N=.9854 Rb=17.4m)
*$
.model M2SK1073 NMOS(Level=3 Gamma=0 Delta=0 Eta=0 Theta=0 Kappa=0.2 Vmax=0 Xj=0
+               Tox=2u Uo=600 Phi=.6 Kp=1.022u W=2 L=2u Rs=20m Vto=3.525
+               Rd=2.652 Rds=800K Cgso=605.7p Cgdo=32.2p Cbd=1.382n Mj=.8861
+               Pb=.5439 Fc=.5 Rg=0 Is=10f N=1 Rb=1m)
*$
.model M2SK1074 NMOS(Level=3 Gamma=0 Delta=0 Eta=0 Theta=0 Kappa=0.2 Vmax=0 Xj=0
+               Tox=2u Uo=600 Phi=.6 Kp=1.022u W=2 L=2u Rs=20m Vto=3.525
+               Rd=2.652 Rds=800K Cgso=605.7p Cgdo=32.2p Cbd=1.382n Mj=.8861
+               Pb=.5439 Fc=.5 Rg=0 Is=10f N=1 Rb=1m)
*$
.MODEL M2SK1079 NMOS(
+ LEVEL=3
+ L=2.0000E-6
+ W=1.6000
+ KP=1.0271E-6
+ RS=10.000E-3
+ RD=.79346
+ VTO=1.6700
+ RDS=2.0000E6
+ TOX=2.0000E-6
+ CGSO=458.49E-12
+ CGDO=10.196E-12
+ CBD=145.12E-12
+ MJ=1.1555
+ PB=3
+ RG=18.874
+ IS=14.298E-9
+ N=1.7748
+ RB=1.0000E-9
+ GAMMA=0
+ KAPPA=0)
*$
.MODEL M2SK1119 NMOS(
+ LEVEL=3
+ L=2.0000E-6
+ W=2.5000
+ KP=1.0452E-6
+ RS=10.000E-3
+ RD=2.8862
+ VTO=2.5000
+ RDS=5.3333E6
+ TOX=2.0000E-6
+ CGSO=2.4868E-9
+ CGDO=25.134E-12
+ CBD=726.82E-12
+ MJ=1.3842
+ PB=3
+ RG=10.000E-3
+ IS=3.8028E-3
+ N=5
+ RB=1.0000E-9
+ GAMMA=0
+ KAPPA=0)
*$
.MODEL M2SK1120 NMOS(
+ LEVEL=3
+ L=2.0000E-6
+ W=2.7000
+ KP=1.0489E-6
+ RS=10.000E-3
+ RD=1.3935
+ VTO=2.4500
+ RDS=5.3333E6
+ TOX=2.0000E-6
+ CGSO=4.4094E-9
+ CGDO=46.583E-12
+ CBD=1.3248E-9
+ MJ=1.4376
+ PB=3
+ RG=10.000E-3
+ IS=4.5093E-3
+ N=5
+ RB=1.0000E-9
+ GAMMA=0
+ KAPPA=0)
*$
.model M2SK1136 NMOS(Level=3 Gamma=0 Delta=0 Eta=0 Theta=0 Kappa=0.2 Vmax=0 Xj=0
+               Tox=2u Uo=600 Phi=.6 Kp=1.037u W=7.2 L=2u Rs=20m Vto=1.59
+               Rd=20.56m Rds=500K Cgso=10.71p Cgdo=97.06p Cbd=2.039n Mj=.7268
+               Pb=.3905 Fc=.5 Rg=0 Is=10E-21 N=.4678 Rb=15.4m)
*$
.model M2SK1137 NMOS(Level=3 Gamma=0 Delta=0 Eta=0 Theta=0 Kappa=0.2 Vmax=0 Xj=0
+               Tox=2u Uo=600 Phi=.6 Kp=1.045u W=20 L=2u Rs=10m Vto=1.73
+               Rd=14.67m Rds=500K Cgso=0 Cgdo=32.79p Cbd=5.4n Mj=.6778 Pb=.469
+               Fc=.5 Rg=0 Is=10.05E-21 N=.5836 Rb=3.532m)
*$
.model M2SK1138 NMOS(Level=3 Gamma=0 Delta=0 Eta=0 Theta=0 Kappa=0.2 Vmax=0 Xj=0
+               Tox=2u Uo=600 Phi=.6 Kp=1.041u W=5.8 L=2u Rs=20m Vto=1.866
+               Rd=.1857 Rds=1.5MEG Cgso=50.59p Cgdo=43.56p Cbd=1.85n Mj=1.2
+               Pb=.4544 Fc=.5 Rg=0 Is=10f N=1 Rb=1m)
*$
.model M2SK1139 NMOS(Level=3 Gamma=0 Delta=0 Eta=0 Theta=0 Kappa=0.2 Vmax=0 Xj=0
+               Tox=2u Uo=600 Phi=.6 Kp=1.05u W=19 L=2u Rs=20m Vto=1.293
+               Rd=64.47m Rds=1.5MEG Cgso=105.1p Cgdo=13.93p Cbd=4.061n
+               Mj=1.039 Pb=.491 Fc=.5 Rg=0 Is=10f N=1 Rb=1m)
*$
.model M2SK1142 NMOS(Level=3 Gamma=0 Delta=0 Eta=0 Theta=0 Kappa=0.2 Vmax=0 Xj=0
+               Tox=2u Uo=600 Phi=.6 Kp=1.068u W=1.1 L=2u Rs=5m Vto=3.896
+               Rd=5.662 Rds=800K Cgso=359p Cgdo=25.63p Cbd=898.2p Mj=.7822
+               Pb=.3905 Fc=.5 Rg=0 Is=10f N=1 Rb=1m)
*$
.model M2SK1143 NMOS(Level=3 Gamma=0 Delta=0 Eta=0 Theta=0 Kappa=0.2 Vmax=0 Xj=0
+               Tox=2u Uo=600 Phi=.6 Kp=1.068u W=1.1 L=2u Rs=5m Vto=3.792
+               Rd=6.079 Rds=900K Cgso=359p Cgdo=25.63p Cbd=873.3p Mj=.7714
+               Pb=.3905 Fc=.5 Rg=0 Is=10f N=1 Rb=1m)
*$
.model M2SK1198 NMOS(Level=3 Gamma=0 Delta=0 Eta=0 Theta=0 Kappa=0.2 Vmax=0 Xj=0
+               Tox=2u Uo=600 Phi=.6 Kp=1.036u W=3.7 L=2u Rs=20m Vto=3.517
+               Rd=3.086 Rds=7MEG Cgso=174.5p Cgdo=8.835p Cbd=5.188n Mj=1.2
+               Pb=.9531 Fc=.5 Rg=9.643 Is=10f N=1 Rb=1m)
*$
.model M2SK1319 NMOS(Level=3 Gamma=0 Delta=0 Eta=0 Theta=0 Kappa=0.2 Vmax=0 Xj=0
+               Tox=2u Uo=600 Phi=.6 Kp=1.02u W=3 L=2u Rs=20m Vto=3.279
+               Rd=.3356 Rds=250K Cgso=260.8p Cgdo=62.94p Cbd=2.221n Mj=1.034
+               Pb=.3905 Fc=.5 Rg=0 Is=10f N=1 Rb=1m)
*$
.model M2SK1320 NMOS(Level=3 Gamma=0 Delta=0 Eta=0 Theta=0 Kappa=0.2 Vmax=0 Xj=0
+               Tox=2u Uo=600 Phi=.6 Kp=1.04u W=2.6 L=2u Rs=10m Vto=1.265
+               Rd=.385 Rds=300K Cgso=464.7p Cgdo=72.94p Cbd=1.866n Mj=.9767
+               Pb=.3905 Fc=.5 Rg=0 Is=10f N=1 Rb=1m)
*$
.model M2SK1321 NMOS(Level=3 Gamma=0 Delta=0 Eta=0 Theta=0 Kappa=0.2 Vmax=0 Xj=0
+               Tox=2u Uo=600 Phi=.6 Kp=1.041u W=1.9 L=2u Rs=20m Vto=3.356
+               Rd=.7241 Rds=450K Cgso=486p Cgdo=43.09p Cbd=1.339n Mj=.764
+               Pb=.3905 Fc=.5 Rg=0 Is=10f N=1 Rb=1m)
*$
.model M2SK1322 NMOS(Level=3 Gamma=0 Delta=0 Eta=0 Theta=0 Kappa=0.2 Vmax=0 Xj=0
+               Tox=2u Uo=600 Phi=.6 Kp=1.018u W=2.2 L=2u Rs=0 Vto=3.232 Rd=1m
+               Rds=500K Cgso=206.7p Cgdo=51.07p Cbd=1.018n Mj=1.002 Pb=.7881
+               Fc=.5 Rg=0 Is=207.9u N=4.026 Rb=36.96m)
*$
.model M2SK1323 NMOS(Level=3 Gamma=0 Delta=0 Eta=0 Theta=0 Kappa=0.2 Vmax=0 Xj=0
+               Tox=2u Uo=600 Phi=.6 Kp=1.009u W=1.2 L=2u Rs=20m Vto=3.95
+               Rd=5.237 Rds=800K Cgso=833.3p Cgdo=26.85p Cbd=794.6p Mj=.7644
+               Pb=.3905 Fc=.5 Rg=0 Is=10f N=1 Rb=1m)
*$
.model M2SK1324 NMOS(Level=3 Gamma=0 Delta=0 Eta=0 Theta=0 Kappa=0.2 Vmax=0 Xj=0
+               Tox=2u Uo=600 Phi=.6 Kp=1.039u W=.97 L=2u Rs=20m Vto=3.793
+               Rd=5.65 Rds=900K Cgso=1.024n Cgdo=33.24p Cbd=819.4p Mj=.7643
+               Pb=.3905 Fc=.5 Rg=0 Is=10f N=1 Rb=1m)
*$
.MODEL M2SK1357 NMOS(
+ LEVEL=3
+ L=2.0000E-6
+ W=.93
+ KP=1.0330E-6
+ RS=10.000E-3
+ RD=2.1850
+ VTO=2.8500
+ RDS=4.8000E6
+ TOX=2.0000E-6
+ CGSO=5.3225E-9
+ CGDO=67.743E-12
+ CBD=874.70E-12
+ MJ=1.3802
+ PB=3
+ RG=1.3144E9
+ IS=37.320E-6
+ N=2.7737
+ RB=1.0000E-9
+ GAMMA=0
+ KAPPA=0)
*$
.MODEL M2SK1359 NMOS(
+ LEVEL=3
+ L=2.0000E-6
+ W=2.5000
+ KP=1.0452E-6
+ RS=10.000E-3
+ RD=2.8862
+ VTO=2.5000
+ RDS=5.3333E6
+ TOX=2.0000E-6
+ CGSO=2.7698E-9
+ CGDO=25.099E-12
+ CBD=727.12E-12
+ MJ=1.3854
+ PB=3
+ RG=10.000E-3
+ IS=3.8028E-3
+ N=5
+ RB=1.0000E-9
+ GAMMA=0
+ KAPPA=0)
*$
.MODEL M2SK1363 NMOS(
+ LEVEL=3
+ L=2.0000E-6
+ W=2.9000
+ KP=1.0384E-6
+ RS=10.000E-3
+ RD=.99874
+ VTO=2.5000
+ RDS=4.8000E6
+ TOX=2.0000E-6
+ CGSO=4.1412E-9
+ CGDO=43.359E-12
+ CBD=1.3070E-9
+ MJ=1.3899
+ PB=3
+ RG=10.000E-3
+ IS=27.527E-6
+ N=2.7093
+ RB=1.0000E-9
+ GAMMA=0
+ KAPPA=0)
*$
.MODEL M2SK1365 NMOS(
+ LEVEL=3
+ L=2.0000E-6
+ W=2.7000
+ KP=1.0489E-6
+ RS=10.000E-3
+ RD=1.3935
+ VTO=2.4500
+ RDS=5.3333E6
+ TOX=2.0000E-6
+ CGSO=4.5825E-9
+ CGDO=46.558E-12
+ CBD=1.3070E-9
+ MJ=1.3899
+ PB=3
+ RG=10.000E-3
+ IS=4.5093E-3
+ N=5
+ RB=1.0000E-9
+ GAMMA=0
+ KAPPA=0)
*$
.MODEL M2SK1378 NMOS(
+ LEVEL=3
+ L=2.0000E-6
+ W=5.6000
+ KP=1.0336E-6
+ RS=10.000E-3
+ RD=.28936
+ VTO=3
+ RDS=3.2000E6
+ TOX=2.0000E-6
+ CGSO=2.3656E-9
+ CGDO=22.394E-12
+ CBD=22.884E-9
+ MJ=1.5000
+ PB=.55457
+ RG=10.000E-3
+ IS=3.4754E-15
+ RB=1.0000E-9
+ GAMMA=0
+ KAPPA=0)
*$
.MODEL M2SK1381 NMOS(
+ LEVEL=3
+ L=2.0000E-6
+ W=80
+ KP=1.0414E-6
+ RS=10.000E-3
+ RD=12.030E-3
+ VTO=1.6300
+ RDS=2.0000E6
+ TOX=2.0000E-6
+ CGSO=209.17E-12
+ CGDO=4.0957E-12
+ CBD=5.1553E-9
+ MJ=.53156
+ PB=.91157
+ RG=1.0697
+ IS=10.879E-3
+ N=4.6427
+ RB=1.0000E-9
+ GAMMA=0
+ KAPPA=0)
*$
.MODEL M2SK1382 NMOS(
+ LEVEL=3
+ L=2.0000E-6
+ W=120
+ KP=1.0768E-6
+ RS=10.000E-3
+ RD=3.0823E-3
+ VTO=1.6000
+ RDS=2.0000E6
+ TOX=2.0000E-6
+ CGSO=336.41E-12
+ CGDO=38.446E-12
+ CBD=7.5003E-9
+ MJ=1.5000
+ RG=10.000E-3
+ IS=32.928E-3
+ N=5
+ RB=1.0000E-9
+ GAMMA=0
+ KAPPA=0)
*$
.model M2SK1410 NMOS(Level=3 Gamma=0 Delta=0 Eta=0 Theta=0 Kappa=0.2 Vmax=0 Xj=0
+               Tox=2u Uo=600 Phi=.6 Kp=1.032u W=7.9 L=2u Rs=20m Vto=3.452
+               Rd=.3147 Rds=500K Cgso=182.5p Cgdo=25.81p Cbd=3.605n Mj=.7968
+               Pb=.3905 Fc=.5 Rg=0 Is=10f N=1 Rb=1m)
*$
.model M2SK1411 NMOS(Level=3 Gamma=0 Delta=0 Eta=0 Theta=0 Kappa=0.2 Vmax=0 Xj=0
+               Tox=2u Uo=600 Phi=.6 Kp=1.038u W=8.055 L=2u Rs=20m Vto=4.706
+               Rd=.1987 Rds=500K Cgso=301.8p Cgdo=45.7p Cbd=5.456n Mj=.8512
+               Pb=.3905 Fc=.5 Rg=0 Is=10f N=1 Rb=1m)
*$
.model M2SK1416 NMOS(Level=3 Gamma=0 Delta=0 Eta=0 Theta=0 Kappa=0.2 Vmax=0 Xj=0
+               Tox=2u Uo=600 Phi=.6 Kp=1.041u W=9.4 L=2u Rs=20m Vto=2.39
+               Rd=11.88m Rds=600K Cgso=4p Cgdo=1p Cbd=1.47n Mj=.4997 Pb=1.127
+               Fc=.5 Rg=236.6 Is=1f N=1 Rb=1m)
*$
.model M2SK1440 NMOS(Level=3 Gamma=0 Delta=0 Eta=0 Theta=0 Kappa=0.2 Vmax=0 Xj=0
+               Tox=2u Uo=600 Phi=.6 Kp=1.036u W=5.3 L=2u Rs=20m Vto=2.53
+               Rd=.9307 Rds=450K Cgso=4p Cgdo=1p Cbd=3.285n Mj=.8767 Pb=.3905
+               Fc=.5 Rg=92.93 Is=1f N=1 Rb=1m)
*$
.model M2SK1476 NMOS(Level=3 Gamma=0 Delta=0 Eta=0 Theta=0 Kappa=0.2 Vmax=0 Xj=0
+               Tox=2u Uo=600 Phi=.6 Kp=1.027u W=3.7 L=2u Rs=20m Vto=4.104
+               Rd=.3796 Rds=450K Cgso=364p Cgdo=24.99p Cbd=2.383n Mj=.7761
+               Pb=.3905 Fc=.5 Rg=0 Is=10f N=1 Rb=1m)
*$
.model M2SK1477 NMOS(Level=3 Gamma=0 Delta=0 Eta=0 Theta=0 Kappa=0.2 Vmax=0 Xj=0
+               Tox=2u Uo=600 Phi=.6 Kp=1.027u W=3.7 L=2u Rs=20m Vto=4.104
+               Rd=.3796 Rds=500K Cgso=364p Cgdo=24.99p Cbd=2.383n Mj=.7761
+               Pb=.3905 Fc=.5 Rg=0 Is=10f N=1 Rb=1m)
*$
.MODEL M2SK1486 NMOS(
+ LEVEL=3
+ L=2.0000E-6
+ W=37
+ KP=1.0223E-6
+ RS=10.000E-3
+ RD=62.346E-3
+ VTO=2.8700
+ RDS=2.0000E6
+ TOX=2.0000E-6
+ CGSO=309.55E-12
+ CGDO=9.0444E-12
+ CBD=4.4267E-9
+ MJ=1.0451
+ PB=3
+ RG=10.000E-3
+ IS=383.47E-6
+ N=3.6136
+ RB=1.0000E-9
+ GAMMA=0
+ KAPPA=0)
*$
.MODEL M2SK1489 NMOS(
+ LEVEL=3
+ L=2.0000E-6
+ W=4.8000
+ KP=1.0362E-6
+ RS=10.000E-3
+ RD=.7366
+ VTO=2.2500
+ RDS=5.3333E6
+ TOX=2.0000E-6
+ CGSO=1.9036E-9
+ CGDO=31.423E-12
+ CBD=3.7375E-9
+ MJ=1.1448
+ PB=2.0044
+ RG=10.000E-3
+ IS=5.1802E-3
+ N=5
+ RB=1.0000E-9
+ GAMMA=0
+ KAPPA=0)
*$
.MODEL M2SK1529 NMOS(
+ LEVEL=3
+ L=2.0000E-6
+ W=3.5000
+ KP=1.0249E-6
+ RS=10.000E-3
+ RD=.72396
+ VTO=1.3000
+ RDS=360.00E3
+ TOX=2.0000E-6
+ CGSO=2.8345E-9
+ CGDO=43.155E-12
+ CBD=2.3553E-9
+ MJ=1.0202
+ PB=2.4016
+ RG=10.000E-3
+ RB=1.0000E-3
+ GAMMA=0
+ KAPPA=0)
*$
.MODEL M2SK1530 NMOS(
+ LEVEL=3
+ L=2.0000E-6
+ W=3.5000
+ KP=1.0249E-6
+ RS=10.000E-3
+ RD=.72231
+ VTO=1.5000
+ RDS=400.00E3
+ TOX=2.0000E-6
+ CGSO=2.7228E-9
+ CGDO=43.155E-12
+ CBD=1.2320E-9
+ MJ=1.2780
+ PB=3
+ RG=10.000E-3
+ RB=1.0000E-3
+ GAMMA=0
+ KAPPA=0)
*$
.MODEL M2SK1542 NMOS(
+ LEVEL=3
+ L=2.0000E-6
+ W=94
+ KP=1.0324E-6
+ RS=10.000E-3
+ RD=2.5684E-3
+ VTO=1.3000
+ RDS=1.2000E6
+ TOX=2.0000E-6
+ CGSO=504.84E-12
+ CGDO=14.546E-12
+ CBD=6.3630E-9
+ MJ=1.3984
+ PB=1.1608
+ RG=10.000E-3
+ IS=6.4432E-3
+ N=5
+ RB=1.0000E-9
+ GAMMA=0
+ KAPPA=0)
*$
.MODEL M2SK1544 NMOS(
+ LEVEL=3
+ L=2.0000E-6
+ W=12
+ KP=1.0292E-6
+ RS=10.000E-3
+ RD=.11659
+ VTO=2.8000
+ RDS=3.3333E6
+ TOX=2.0000E-6
+ CGSO=997.35E-12
+ CGDO=16.748E-12
+ CBD=4.1900E-9
+ MJ=1.0031
+ PB=2.0268
+ RG=10.000E-3
+ IS=21.342E-3
+ N=5
+ RB=1.0000E-9
+ GAMMA=0
+ KAPPA=0)
*$
.model M2SK1562 NMOS(Level=3 Gamma=0 Delta=0 Eta=0 Theta=0 Kappa=0.2 Vmax=0 Xj=0
+               Tox=2u Uo=600 Phi=.6 Kp=1.045u W=3.2 L=2u Rs=20m Vto=3.979
+               Rd=.3849 Rds=450K Cgso=335.6p Cgdo=32.18p Cbd=2.009n Mj=.7763
+               Pb=.514 Fc=.5 Rg=0 Is=10f N=1 Rb=1m)
*$
.model M2SK1563 NMOS(Level=3 Gamma=0 Delta=0 Eta=0 Theta=0 Kappa=0.2 Vmax=0 Xj=0
+               Tox=2u Uo=600 Phi=.6 Kp=1.045u W=3.2 L=2u Rs=20m Vto=3.979
+               Rd=.3849 Rds=500K Cgso=335.6p Cgdo=32.18p Cbd=2.009n Mj=.7763
+               Pb=.514 Fc=.5 Rg=0 Is=10f N=1 Rb=1m)
*$
.model M2SK1568 NMOS(Level=3 Gamma=0 Delta=0 Eta=0 Theta=0 Kappa=0.2 Vmax=0 Xj=0
+               Tox=2u Uo=600 Phi=.6 Kp=1.035u W=3 L=2u Rs=20m Vto=3.083
+               Rd=.3815 Rds=250K Cgso=273.3p Cgdo=62.91p Cbd=1.286n Mj=1.081
+               Pb=.8374 Fc=.5 Rg=0 Is=10f N=1 Rb=1m)
*$
.model M2SK1569 NMOS(Level=3 Gamma=0 Delta=0 Eta=0 Theta=0 Kappa=0.2 Vmax=0 Xj=0
+               Tox=2u Uo=600 Phi=.6 Kp=1.035u W=3 L=2u Rs=20m Vto=3.083
+               Rd=.3815 Rds=300K Cgso=273.3p Cgdo=62.91p Cbd=1.286n Mj=1.081
+               Pb=.8374 Fc=.5 Rg=0 Is=10f N=1 Rb=1m)
*$
.MODEL M2SK1600 NMOS(
+ LEVEL=3
+ L=2.0000E-6
+ W=1.9000
+ KP=1.0494E-6
+ RS=10.000E-3
+ RD=4.1493
+ VTO=2.7500
+ RDS=12.800E6
+ TOX=2.0000E-6
+ CGSO=1.5769E-9
+ CGDO=13.209E-12
+ CBD=499.03E-12
+ MJ=.82698
+ PB=1.1268
+ RG=10.000E-3
+ IS=1.3129E-15
+ RB=1.0000E-9
+ GAMMA=0
+ KAPPA=0)
*$
.MODEL M2SK1601 NMOS(
+ LEVEL=3
+ L=2.0000E-6
+ W=1.9000
+ KP=1.0494E-6
+ RS=10.000E-3
+ RD=5.6503
+ VTO=2.7000
+ RDS=14.400E6
+ TOX=2.0000E-6
+ CGSO=1.5926E-9
+ CGDO=13.209E-12
+ CBD=431.34E-12
+ MJ=.95223
+ PB=1.3587
+ RG=10.000E-3
+ IS=1.0812E-15
+ RB=1.0000E-9
+ GAMMA=0
+ KAPPA=0)
*$
.MODEL M2SK1602 NMOS(
+ LEVEL=3
+ L=2.0000E-6
+ W=1.9000
+ KP=1.0494E-6
+ RS=10.000E-3
+ RD=4.1493
+ VTO=2.7500
+ RDS=12.800E6
+ TOX=2.0000E-6
+ CGSO=1.6032E-9
+ CGDO=13.206E-12
+ CBD=499.06E-12
+ MJ=.82691
+ PB=1.1265
+ RG=10.000E-3
+ IS=1.1585E-15
+ RB=1.0000E-9
+ GAMMA=0
+ KAPPA=0)
*$
.MODEL M2SK1641 NMOS(
+ LEVEL=3
+ L=2.0000E-6
+ W=5.5000
+ KP=1.0301E-6
+ RS=10.000E-3
+ RD=.11679
+ VTO=3
+ RDS=1.6667E6
+ TOX=2.0000E-6
+ CGSO=982.78E-12
+ CGDO=27.956E-12
+ CBD=1.7282E-9
+ RG=10.000E-3
+ RB=1.0000E-3
+ GAMMA=0
+ KAPPA=0)
*$
.MODEL M2SK1642 NMOS(
+ LEVEL=3
+ L=2.0000E-6
+ W=4.8000
+ KP=1.0395E-6
+ RS=10.000E-3
+ RD=.28108
+ VTO=3
+ RDS=2.6667E6
+ TOX=2.0000E-6
+ CGSO=1.1348E-9
+ CGDO=15.058E-12
+ CBD=18.640E-9
+ MJ=1.2261
+ PB=.3905
+ RG=.20871
+ IS=3.4754E-15
+ RB=1.0000E-9
+ GAMMA=0
+ KAPPA=0)
*$
.MODEL M2SK1643 NMOS(
+ LEVEL=3
+ L=2.0000E-6
+ W=2.6000
+ KP=1.0236E-6
+ RS=10.000E-3
+ RD=2.3838
+ VTO=2.8000
+ RDS=4.8000E6
+ TOX=2.0000E-6
+ CGSO=2.5193E-9
+ CGDO=24.132E-12
+ CBD=4.1292E-9
+ MJ=1.5000
+ PB=.3905
+ RG=10.000E-3
+ IS=2.8041E-3
+ N=5
+ RB=1.0000E-9
+ GAMMA=0
+ KAPPA=0)
*$
.MODEL M2SK1653 NMOS(
+ LEVEL=3
+ L=2.0000E-6
+ W=100
+ KP=1.0692E-6
+ RS=10.000E-3
+ RD=2.7936E-3
+ VTO=1.3000
+ RDS=1.2000E6
+ TOX=2.0000E-6
+ CGSO=485.06E-12
+ CGDO=13.655E-12
+ CBD=5.3145E-9
+ MJ=1.5000
+ PB=2.2345
+ RG=10.000E-3
+ IS=7.3359E-3
+ N=5
+ RB=1.0000E-9
+ GAMMA=0
+ KAPPA=0)
*$
.MODEL M2SK1692 NMOS(
+ LEVEL=3
+ L=2.0000E-6
+ W=4.1000
+ KP=1.0400E-6
+ RS=10.000E-3
+ RD=1.6262
+ VTO=2.5000
+ RDS=4.8000E6
+ TOX=2.0000E-6
+ CGSO=1.8881E-9
+ CGDO=18.369E-12
+ CBD=1.4379E-9
+ MJ=1.5000
+ PB=2.9283
+ RG=10.000E-3
+ IS=1.9300E-3
+ N=4.4872
+ RB=1.0000E-9
+ GAMMA=0
+ KAPPA=0)
*$
.MODEL M2SK1719 NMOS(
+ LEVEL=3
+ L=2.0000E-6
+ W=8.7000
+ KP=1.0313E-6
+ RS=10.000E-3
+ RD=43.750E-3
+ VTO=1.4500
+ RDS=1.2000E6
+ TOX=2.0000E-6
+ CGSO=510.58E-12
+ CGDO=14.548E-12
+ CBD=612.59E-12
+ RG=10.000E-3
+ IS=1.9647E-3
+ N=5
+ RB=1.0000E-9
+ GAMMA=0
+ KAPPA=0)
*$
.MODEL M2SK1721 NMOS(
+ LEVEL=3
+ L=2.0000E-6
+ W=2.2000
+ KP=1.0541E-6
+ RS=10.000E-3
+ RD=2.3655
+ VTO=3
+ RDS=3.3333E6
+ TOX=2.0000E-6
+ CGSO=650.19E-12
+ CGDO=10.263E-12
+ CBD=506.15E-12
+ RG=10.000E-3
+ RB=1.0000E-3
+ GAMMA=0
+ KAPPA=0)
*$
.MODEL M2SK1722 NMOS(
+ LEVEL=3
+ L=2.0000E-6
+ W=4.6000
+ KP=1.0388E-6
+ RS=10.000E-3
+ RD=1.2302
+ VTO=2.9000
+ RDS=3.3333E6
+ TOX=2.0000E-6
+ CGSO=447.67E-12
+ CGDO=5.9954E-12
+ CBD=1.1105E-9
+ MJ=.82602
+ PB=3
+ RG=10.000E-3
+ IS=2.1676E-3
+ N=5
+ RB=1.0000E-9
+ GAMMA=0
+ KAPPA=0)
*$
.MODEL M2SK1745 NMOS(
+ LEVEL=3
+ L=2.0000E-6
+ W=10
+ KP=1.0447E-6
+ RS=10.000E-3
+ RD=.24948
+ VTO=3.5000
+ RDS=3.3333E6
+ TOX=2.0000E-6
+ CGSO=372.61E-12
+ CGDO=10.043E-12
+ CBD=2.4147E-9
+ MJ=.84673
+ PB=1.6037
+ RG=10.000E-3
+ IS=10.413E-3
+ N=5
+ RB=1.0000E-9
+ GAMMA=0
+ KAPPA=0)
*$
.MODEL M2SK1746 NMOS(
+ LEVEL=3
+ L=2.0000E-6
+ W=2.7000
+ KP=1.0526E-6
+ RS=10.000E-3
+ RD=2.8900
+ VTO=2.9000
+ RDS=4.0000E6
+ TOX=2.0000E-6
+ CGSO=449.19E-12
+ CGDO=4.6371E-12
+ CBD=559.00E-12
+ MJ=.64666
+ PB=.39636
+ RG=10.000E-3
+ IS=30.719E-18
+ RB=1.0000E-9
+ GAMMA=0
+ KAPPA=0)
*$
.MODEL M2SK175 NMOS LEVEL=3 L=2.000E-6 W=.62 KP=1.037E-6 RS=10.00E-3
+ RD=1.000E-3 VTO=-.2321 RDS=6.000E6 TOX=2.000E-6 CGSO=40.00E-12 CGDO=10.00E-12
+ CBD=2.184E-9 RG=188.1 RB=1.000E-3 GAMMA=0 KAPPA=0
*$
.MODEL M2SK176 NMOS LEVEL=3 L=2.000E-6 W=.62 KP=1.037E-6 RS=10.00E-3
+ RD=1.000E-3 VTO=-.2321 RDS=6.000E6 TOX=2.000E-6 CGSO=40.00E-12 CGDO=10.00E-12
+ CBD=2.184E-9 RG=188.1 RB=1.000E-3 GAMMA=0 KAPPA=0
*$
.MODEL M2SK1792 NMOS(
+ LEVEL=3
+ L=2.0000E-6
+ W=100
+ KP=1.0649E-6
+ RS=10.000E-3
+ RD=2.7847E-3
+ VTO=1.3000
+ RDS=1.2000E6
+ TOX=2.0000E-6
+ CGSO=100.00E-18
+ CGDO=13.655E-6
+ CBD=4.7043E-9
+ MJ=1.5000
+ PB=.49034
+ RG=10.000E-3
+ IS=7.3359E-3
+ N=5
+ RB=1.0000E-9
+ GAMMA=0
+ KAPPA=0)
*$
.MODEL M2SK1854 NMOS(
+ LEVEL=3
+ L=2.0000E-6
+ W=4.4000
+ KP=1.0386E-6
+ RS=10.000E-3
+ RD=.72462
+ VTO=3.2000
+ RDS=8.0000E6
+ TOX=2.0000E-6
+ CGSO=377.70E-12
+ CGDO=7.1333E-12
+ CBD=790.01E-12
+ MJ=.81541
+ PB=1.7792
+ RG=10.000E-3
+ IS=3.8055E-3
+ N=4.9767
+ RB=1.0000E-9
+ GAMMA=0
+ KAPPA=0)
*$
.MODEL M2SK1855 NMOS(
+ LEVEL=3
+ L=2.0000E-6
+ W=5.6000
+ KP=1.0401E-6
+ RS=10.000E-3
+ RD=.48702
+ VTO=3.3000
+ RDS=3.3333E6
+ TOX=2.0000E-6
+ CGSO=397.54E-12
+ CGDO=11.216E-12
+ CBD=1.1282E-9
+ MJ=.84643
+ PB=1.9003
+ RG=10.000E-3
+ IS=8.3150E-3
+ N=5
+ RB=1.0000E-9
+ GAMMA=0
+ KAPPA=0)
*$
.MODEL M2SK1858 NMOS(
+ LEVEL=3
+ L=2.0000E-6
+ W=1.9000
+ KP=1.0494E-6
+ RS=10.000E-3
+ RD=4.1441
+ VTO=3
+ RDS=12.800E6
+ TOX=2.0000E-6
+ CGSO=1.5027E-9
+ CGDO=13.209E-12
+ CBD=1.0000E-9
+ RG=10.000E-3
+ RB=1.0000E-3
+ GAMMA=0
+ KAPPA=0)
*$
.MODEL M2SK1865 NMOS(
+ LEVEL=3
+ L=2.0000E-6
+ W=5.6000
+ KP=1.0304E-6
+ RS=10.000E-3
+ RD=.48651
+ VTO=3.3000
+ RDS=3.3333E6
+ TOX=2.0000E-6
+ CGSO=396.59E-12
+ CGDO=11.216E-12
+ CBD=1.1282E-9
+ MJ=.84641
+ PB=1.9002
+ RG=10.000E-3
+ IS=8.3150E-3
+ N=5
+ RB=1.0000E-9
+ GAMMA=0
+ KAPPA=0)
*$
.MODEL M2SK1929 NMOS(
+ LEVEL=3
+ L=2.0000E-6
+ W=2
+ KP=1.0412E-6
+ RS=10.000E-3
+ RD=2.3496
+ VTO=3
+ RDS=4.8000E6
+ TOX=2.0000E-6
+ CGSO=2.9817E-9
+ CGDO=31.397E-12
+ CBD=214.96E-12
+ RG=10.000E-3
+ RB=1.0000E-3
+ GAMMA=0
+ KAPPA=0)
*$
.MODEL M2SK1930 NMOS(
+ LEVEL=3
+ L=2.0000E-6
+ W=2.5000
+ KP=1.0452E-6
+ RS=10.000E-3
+ RD=2.8862
+ VTO=2.5000
+ RDS=5.3333E6
+ TOX=2.0000E-6
+ CGSO=2.7698E-9
+ CGDO=25.099E-12
+ CBD=710.74E-12
+ MJ=1.3054
+ PB=3
+ RG=10.000E-3
+ IS=3.8028E-3
+ N=5
+ RB=1.0000E-9
+ GAMMA=0
+ KAPPA=0)
*$
.MODEL M2SK2013 NMOS(
+ LEVEL=3
+ L=2.0000E-6
+ W=1.3000
+ KP=1.0030E-6
+ RS=10.000E-3
+ RD=10.000E-3
+ VTO=1.5000
+ RDS=1.0000E6
+ TOX=2.0000E-6
+ CGSO=40.000E-12
+ CGDO=10.000E-12
+ CBD=156.73E-12
+ MJ=.96725
+ PB=3
+ RG=5
+ RB=1.0000E-3
+ GAMMA=0
+ KAPPA=0)
*$
.MODEL M2SK2030 NMOS(
+ LEVEL=3
+ L=2.0000E-6
+ W=3.1000
+ KP=1.0428E-6
+ RS=10.000E-3
+ RD=1.0000E-3
+ VTO=3
+ RDS=1.2000E6
+ TOX=2.0000E-6
+ CGSO=359.03E-12
+ CGDO=55.602E-12
+ CBD=1.0017E-9
+ MJ=.90375
+ PB=1.6220
+ RG=10.000E-3
+ IS=1.7785E-3
+ N=5
+ RB=1.0000E-9
+ GAMMA=0
+ KAPPA=0)
*$
.MODEL M2SK2077 NMOS(
+ LEVEL=3
+ L=2.0000E-6
+ W=3.6000
+ KP=1.0228E-6
+ RS=10.000E-3
+ RD=1.3160
+ VTO=2.5000
+ RDS=4.2667E6
+ TOX=2.0000E-6
+ CGSO=2.0730E-9
+ CGDO=20.931E-12
+ CBD=1.8708E-9
+ MJ=1.2070
+ PB=1.9100
+ RG=10.000E-3
+ IS=184.46E-15
+ RB=1.0000E-9
+ GAMMA=0
+ KAPPA=0)
*$
.MODEL M2SK2089 NMOS(
+ LEVEL=3
+ L=2.0000E-6
+ W=3.1000
+ KP=1.0285E-6
+ RS=10.000E-3
+ RD=1.6982
+ VTO=3
+ RDS=4.2667E6
+ TOX=2.0000E-6
+ CGSO=1.0716E-9
+ CGDO=22.672E-12
+ CBD=233.57E-12
+ RG=10.000E-3
+ RB=1.0000E-3
+ GAMMA=0
+ KAPPA=0)
*$
.MODEL M2SK2146 NMOS(
+ LEVEL=3
+ L=2.0000E-6
+ W=1.2000
+ KP=1.0417E-6
+ RS=10.000E-3
+ RD=.94828
+ VTO=3.2500
+ RDS=1.6667E6
+ TOX=2.0000E-6
+ CGSO=528.19E-12
+ CGDO=16.804E-12
+ CBD=265.02E-12
+ MJ=.96683
+ PB=3
+ RG=5.2680
+ IS=32.336E-18
+ RB=1.0000E-9
+ GAMMA=0
+ KAPPA=0)
*$
.MODEL M2SK2162 NMOS(
+ LEVEL=3
+ L=2.0000E-6
+ W=.5
+ RS=10.000E-3
+ RD=10.000E-3
+ VTO=3
+ RDS=1.0000E6
+ TOX=2.0000E-6
+ CGSO=40.000E-12
+ CGDO=10.000E-12
+ CBD=149.14E-12
+ RG=5
+ RB=1.0000E-3
+ GAMMA=0
+ KAPPA=0)
*$
.MODEL M2SK2173 NMOS(
+ LEVEL=3
+ L=2.0000E-6
+ W=130
+ KP=997.83E-9
+ RS=10.000E-3
+ RD=1.0669E-3
+ VTO=1.7500
+ RDS=1.2000E6
+ TOX=2.0000E-6
+ CGSO=145.40E-12
+ CGDO=6.4562E-12
+ CBD=6.7653E-9
+ MJ=.72882
+ PB=.77072
+ RG=.57531
+ IS=485.04E-18
+ RB=1.0000E-9
+ GAMMA=0
+ KAPPA=0)
*$
.MODEL M2SK2200 NMOS(
+ LEVEL=3
+ L=2.0000E-6
+ W=2.6000
+ KP=1.0318E-6
+ RS=10.000E-3
+ RD=.18007
+ VTO=1.6000
+ RDS=2.0000E6
+ TOX=2.0000E-6
+ CGSO=836.09E-12
+ CGDO=24.409E-12
+ CBD=385.45E-12
+ MJ=1.5000
+ PB=2.6465
+ RG=10.000E-3
+ IS=1.7879E-3
+ N=5
+ RB=1.0000E-9
+ GAMMA=0
+ KAPPA=0)
*$
.MODEL M2SK2201 NMOS(
+ LEVEL=3
+ L=2.0000E-6
+ W=2.6000
+ KP=1.0318E-6
+ RS=10.000E-3
+ RD=.18007
+ VTO=1.6000
+ RDS=2.0000E6
+ TOX=2.0000E-6
+ CGSO=836.09E-12
+ CGDO=24.409E-12
+ CBD=385.45E-12
+ MJ=1.5000
+ PB=2.6465
+ RG=10.000E-3
+ IS=1.7879E-3
+ N=5
+ RB=1.0000E-9
+ GAMMA=0
+ KAPPA=0)
*$
.MODEL M2SK2222 NMOS(
+ LEVEL=3
+ L=2.0000E-6
+ W=3.1000
+ KP=1.0285E-6
+ RS=10.000E-3
+ RD=1.6982
+ VTO=3
+ RDS=4.2667E6
+ TOX=2.0000E-6
+ CGSO=1.6014E-9
+ CGDO=15.384E-12
+ CBD=1.0000E-9
+ RG=10.000E-3
+ RB=1.0000E-3
+ GAMMA=0
+ KAPPA=0)
*$
.MODEL M2SK2228 NMOS(
+ LEVEL=3
+ L=2.0000E-6
+ W=8.8000
+ KP=1.0342E-6
+ RS=10.000E-3
+ RD=44.123E-3
+ VTO=1.4500
+ RDS=1.2000E6
+ TOX=2.0000E-6
+ CGSO=506.35E-12
+ CGDO=14.379E-12
+ CBD=1.0283E-9
+ MJ=.92365
+ PB=1.7452
+ RG=10.000E-3
+ IS=80.840E-18
+ RB=1.0000E-9
+ GAMMA=0
+ KAPPA=0)
*$
.MODEL M2SK2229 NMOS(
+ LEVEL=3
+ L=2.0000E-6
+ W=5.1000
+ KP=1.0318E-6
+ RS=10.000E-3
+ RD=63.460E-3
+ VTO=1.7500
+ RDS=1.2000E6
+ TOX=2.0000E-6
+ CGSO=386.20E-12
+ CGDO=16.705E-12
+ CBD=769.73E-12
+ MJ=.63122
+ PB=.39744
+ RG=.85053
+ IS=80.840E-18
+ RB=1.0000E-9
+ GAMMA=0
+ KAPPA=0)
*$
.MODEL M2SK2230 NMOS(
+ LEVEL=3
+ L=2.0000E-6
+ W=1.2000
+ KP=1.0417E-6
+ RS=10.000E-3
+ RD=.84641
+ VTO=3.3000
+ RDS=1.6667E6
+ TOX=2.0000E-6
+ CGSO=523.24E-12
+ CGDO=16.804E-12
+ CBD=265.02E-12
+ MJ=.96677
+ PB=3
+ RG=5.7200
+ IS=32.336E-18
+ RB=1.0000E-9
+ GAMMA=0
+ KAPPA=0)
*$
.MODEL M2SK2231 NMOS(
+ LEVEL=3
+ L=2.0000E-6