* Library of Linear Technology op-amp models
*
* $Revision:   1.13  $
* $Author:   ANW  $
* $Date:   23 Aug 1995 18:36:52  $
*
*
*---------------------------------------------------------------
*
*$ 
* Linear Technology LF155 op amp model  
* Written: 05-10-1990 18:16:50 Type: PFET input, internal comp.
* Typical specs: 
* Vos=2.0E-03, Ib=3.0E-11, Ios=3.0E-12, GBP=2.5E+06Hz, Phase mar.= 45 deg, 
* SR(low)=7.0E+00V/us, SR(high)=1.4E+01V/us, Av=106.0dB, CMRR=100.0dB, 
* Vsat(+)=2.0V, Vsat(-)=2.0V, Isc=+/-25mA, Rout= 100ohms, Iq= 2mA.
* (input cm clamp *optional*)
* 
* Connections: + - V+V-O 
.SUBCKT LF155/LT 3 2 7 4 6 
* INPUT
VCM2 40 4 2.0000E+00
RD1 40 80 2.1221E+03
RD2 40 90 2.1221E+03
J1 80 102 12 JM1 
J2 90 103 12 JM2 
CIN 2 3 4.0000E-12
RG1 2 102 2.0000E+00
RG2 3 103 2.0000E+00
** CM CLAMP 
* DCM1 107 103 DM4 
* DCM2 105 107 DM4 
* VCMC 105 4 4.0E+00
* ECMP 106 4 103 4 1 
* RCMP 107 106 1E+04
* DCM3 109 102 DM4 
* DCM4 105 109 DM4 
* ECMN 108 4 102 4 1 
* RCMN 109 108 1E+04
** END CM CLAMP 
C1 80 90 1.5000E-11
ISS 7 12 2.8000E-04
GOSIT 7 12 90 80 1.4000E-04
* INTERMEDIATE 
GCM 0 8 12 0 4.7124E-09
GA 8 0 80 90 4.7124E-04
R2 8 0 1.0000E+05
C2 1 8 3.0000E-11
GB 1 0 8 0 4.2768E+01
RO2 1 0 9.9000E+01
* OUTPUT 
RSO 1 6 1.0000E+00
ECL 18 0 1 6 2.0124E+01
GCL 0 8 20 0 1.0000E+00
RCL 20 0 1.0000E+03
D1 18 20 DM1 
D2 20 18 DM1 
* 
D3A 131 70 DM3 
D3B 13 131 DM3 
GPL 0 8 70 7 1.0000E+00
VC 13 6 3.1403E+00
RPLA 7 70 1.0000E+04
RPLB 7 131 1.0000E+05
D4A 60 141 DM3 
D4B 141 14 DM3 
GNL 0 8 60 4 1.0000E+00
VE 6 14 3.1403E+00
RNLA 60 4 1.0000E+04
RNLB 141 4 1.0000E+05
* 
IP 7 4 1.7200E-03
DSUB 4 7 DM2 
* MODELS 
.MODEL JM1 PJF (IS=3.1500E-11 BETA=3.9655E-04 VTO=-1.000000E+00)
.MODEL JM2 PJF (IS=2.8500E-11 BETA=3.9655E-04 VTO=-9.980000E-01)
.MODEL DM1 D (IS=1.0000E-15)
.MODEL DM2 D (IS=8.0000E-16 BV=5.2800E+01)
.MODEL DM3 D (IS=1.0000E-16)
.MODEL DM4 D (IS=1.0000E-09)
.ENDS LF155/LT
* 
* - - - - - * FINI LF155 * - - - - - * [OAMM VJ02 05/08/90]
***
*         (C) COPYRIGHT LINEAR TECHNOLOGY CORPORATION 1990
*                       All rights reserved.
* 
*   Linear Technology Corporation hereby grants the users of this
* macromodel a non-exclusive, nontransferrable license to use this
*            macromodel under the following conditions:
* 
* The user agrees that this macromodel is licensed from Linear
* Technology and agrees that the macromodel may be used, loaned,
* given away or included in other model libraries as long as this
* notice and the model in its entirety and unchanged is included.
* No right to make derivative works or modifications to the
* macromodel is granted hereby.  All such rights are reserved.
* 
* This model is provided as is.  Linear Technology makes no
* warranty, either expressed or implied about the suitability or
* fitness of this model for any particular purpose.  In no event
* will Linear Technology be liable for special, collateral,
* incidental or consequential damages in connection with or arising
* out of the use of this macromodel.  It should be remembered that
* models are a simplification of the actual circuit.
* 
* Linear Technology reserves the right to change these macromodels
* without prior notice.  Contact Linear Technology at 1630 McCarthy
* Blvd., Milpitas, CA, 95035-7487 or telephone 408/432-1900 for
* datasheets on the actual amplifiers or the latest macromodels.
* 
* ----------------------------------------------------------------------- *
*$ 
* Linear Technology LF155A op amp model  
* Written: 05-10-1990 18:19:48 Type: PFET input, internal comp.
* Typical specs: 
* Vos=1.0E-03, Ib=3.0E-11, Ios=3.0E-12, GBP=2.5E+06Hz, Phase mar.= 45 deg, 
* SR(low)=7.0E+00V/us, SR(high)=1.4E+01V/us, Av=106.0dB, CMRR=100.0dB, 
* Vsat(+)=2.0V, Vsat(-)=2.0V, Isc=+/-25mA, Rout= 100ohms, Iq= 2mA.
* (input cm clamp *optional*)
* 
* Connections: + - V+V-O 
.SUBCKT LF155A/LT 3 2 7 4 6 
* INPUT
VCM2 40 4 2.0000E+00
RD1 40 80 2.1221E+03
RD2 40 90 2.1221E+03
J1 80 102 12 JM1 
J2 90 103 12 JM2 
CIN 2 3 4.0000E-12
RG1 2 102 2.0000E+00
RG2 3 103 2.0000E+00
** CM CLAMP 
* DCM1 107 103 DM4 
* DCM2 105 107 DM4 
* VCMC 105 4 4.0E+00
* ECMP 106 4 103 4 1 
* RCMP 107 106 1E+04
* DCM3 109 102 DM4 
* DCM4 105 109 DM4 
* ECMN 108 4 102 4 1 
* RCMN 109 108 1E+04
** END CM CLAMP 
C1 80 90 1.5000E-11
ISS 7 12 2.8000E-04
GOSIT 7 12 90 80 1.4000E-04
* INTERMEDIATE 
GCM 0 8 12 0 4.7124E-09
GA 8 0 80 90 4.7124E-04
R2 8 0 1.0000E+05
C2 1 8 3.0000E-11
GB 1 0 8 0 4.2768E+01
RO2 1 0 9.9000E+01
* OUTPUT 
RSO 1 6 1.0000E+00
ECL 18 0 1 6 2.0124E+01
GCL 0 8 20 0 1.0000E+00
RCL 20 0 1.0000E+03
D1 18 20 DM1 
D2 20 18 DM1 
* 
D3A 131 70 DM3 
D3B 13 131 DM3 
GPL 0 8 70 7 1.0000E+00
VC 13 6 3.1403E+00
RPLA 7 70 1.0000E+04
RPLB 7 131 1.0000E+05
D4A 60 141 DM3 
D4B 141 14 DM3 
GNL 0 8 60 4 1.0000E+00
VE 6 14 3.1403E+00
RNLA 60 4 1.0000E+04
RNLB 141 4 1.0000E+05
* 
IP 7 4 1.7200E-03
DSUB 4 7 DM2 
* MODELS 
.MODEL JM1 PJF (IS=3.1500E-11 BETA=3.9655E-04 VTO=-1.000000E+00)
.MODEL JM2 PJF (IS=2.8500E-11 BETA=3.9655E-04 VTO=-9.990000E-01)
.MODEL DM1 D (IS=1.0000E-15)
.MODEL DM2 D (IS=8.0000E-16 BV=5.2800E+01)
.MODEL DM3 D (IS=1.0000E-16)
.MODEL DM4 D (IS=1.0000E-09)
.ENDS LF155A/LT
* 
* - - - - - * FINI LF155A * - - - - - * [OAMM VJ02 05/08/90]
***
*         (C) COPYRIGHT LINEAR TECHNOLOGY CORPORATION 1990
*                       All rights reserved.
* 
*   Linear Technology Corporation hereby grants the users of this
* macromodel a non-exclusive, nontransferrable license to use this
*            macromodel under the following conditions:
* 
* The user agrees that this macromodel is licensed from Linear
* Technology and agrees that the macromodel may be used, loaned,
* given away or included in other model libraries as long as this
* notice and the model in its entirety and unchanged is included.
* No right to make derivative works or modifications to the
* macromodel is granted hereby.  All such rights are reserved.
* 
* This model is provided as is.  Linear Technology makes no
* warranty, either expressed or implied about the suitability or
* fitness of this model for any particular purpose.  In no event
* will Linear Technology be liable for special, collateral,
* incidental or consequential damages in connection with or arising
* out of the use of this macromodel.  It should be remembered that
* models are a simplification of the actual circuit.
* 
* Linear Technology reserves the right to change these macromodels
* without prior notice.  Contact Linear Technology at 1630 McCarthy
* Blvd., Milpitas, CA, 95035-7487 or telephone 408/432-1900 for
* datasheets on the actual amplifiers or the latest macromodels.
* 
* ----------------------------------------------------------------------- *
*$ 
* Linear Technology LF156 op amp model  
* Written: 05-10-1990 18:26:49 Type: PFET input, internal comp.
* Typical specs: 
* Vos=2.0E-03, Ib=3.0E-11, Ios=3.0E-12, GBP=5.0E+06Hz, Phase mar.= 45 deg, 
* SR(low)=1.2E+01V/us, SR(high)=2.4E+01V/us, Av=106.0dB, CMRR=100.0dB, 
* Vsat(+)=2.0V, Vsat(-)=2.0V, Isc=+/-25mA, Rout=  75ohms, Iq= 5mA.
* (input cm clamp *optional*)
* 
* Connections: + - V+V-O 
.SUBCKT LF156/LT 3 2 7 4 6 
* INPUT
VCM2 40 4 2.0000E+00
RD1 40 80 1.0610E+03
RD2 40 90 1.0610E+03
J1 80 102 12 JM1 
J2 90 103 12 JM2 
CIN 2 3 4.0000E-12
RG1 2 102 2.0000E+00
RG2 3 103 2.0000E+00
** CM CLAMP 
* DCM1 107 103 DM4 
* DCM2 105 107 DM4 
* VCMC 105 4 4.0E+00
* ECMP 106 4 103 4 1 
* RCMP 107 106 1E+04
* DCM3 109 102 DM4 
* DCM4 105 109 DM4 
* ECMN 108 4 102 4 1 
* RCMN 109 108 1E+04
** END CM CLAMP 
C1 80 90 1.5000E-11
ISS 7 12 4.8000E-04
GOSIT 7 12 90 80 2.4000E-04
* INTERMEDIATE 
GCM 0 8 12 0 9.4248E-09
GA 8 0 80 90 9.4248E-04
R2 8 0 1.0000E+05
C2 1 8 3.0000E-11
GB 1 0 8 0 2.8609E+01
RO2 1 0 7.4000E+01
* OUTPUT 
RSO 1 6 1.0000E+00
ECL 18 0 1 6 2.0690E+01
GCL 0 8 20 0 1.0000E+00
RCL 20 0 1.0000E+03
D1 18 20 DM1 
D2 20 18 DM1 
* 
D3A 131 70 DM3 
D3B 13 131 DM3 
GPL 0 8 70 7 1.0000E+00
VC 13 6 3.1552E+00
RPLA 7 70 1.0000E+04
RPLB 7 131 1.0000E+05
D4A 60 141 DM3 
D4B 141 14 DM3 
GNL 0 8 60 4 1.0000E+00
VE 6 14 3.1552E+00
RNLA 60 4 1.0000E+04
RNLB 141 4 1.0000E+05
* 
IP 7 4 4.5200E-03
DSUB 4 7 DM2 
* MODELS 
.MODEL JM1 PJF (IS=3.1500E-11 BETA=9.2528E-04 VTO=-1.000000E+00)
.MODEL JM2 PJF (IS=2.8500E-11 BETA=9.2528E-04 VTO=-9.980000E-01)
.MODEL DM1 D (IS=1.0000E-15)
.MODEL DM2 D (IS=8.0000E-16 BV=5.2800E+01)
.MODEL DM3 D (IS=1.0000E-16)
.MODEL DM4 D (IS=1.0000E-09)
.ENDS LF156/LT
* 
* - - - - - * FINI LF156 * - - - - - * [OAMM VJ02 05/08/90]
***
*         (C) COPYRIGHT LINEAR TECHNOLOGY CORPORATION 1990
*                       All rights reserved.
* 
*   Linear Technology Corporation hereby grants the users of this
* macromodel a non-exclusive, nontransferrable license to use this
*            macromodel under the following conditions:
* 
* The user agrees that this macromodel is licensed from Linear
* Technology and agrees that the macromodel may be used, loaned,
* given away or included in other model libraries as long as this
* notice and the model in its entirety and unchanged is included.
* No right to make derivative works or modifications to the
* macromodel is granted hereby.  All such rights are reserved.
* 
* This model is provided as is.  Linear Technology makes no
* warranty, either expressed or implied about the suitability or
* fitness of this model for any particular purpose.  In no event
* will Linear Technology be liable for special, collateral,
* incidental or consequential damages in connection with or arising
* out of the use of this macromodel.  It should be remembered that
* models are a simplification of the actual circuit.
* 
* Linear Technology reserves the right to change these macromodels
* without prior notice.  Contact Linear Technology at 1630 McCarthy
* Blvd., Milpitas, CA, 95035-7487 or telephone 408/432-1900 for
* datasheets on the actual amplifiers or the latest macromodels.
* 
* ----------------------------------------------------------------------- *
*$ 
* Linear Technology LF156A op amp model  
* Written: 05-10-1990 18:28:18 Type: PFET input, internal comp.
* Typical specs: 
* Vos=1.0E-03, Ib=3.0E-11, Ios=3.0E-12, GBP=5.0E+06Hz, Phase mar.= 45 deg, 
* SR(low)=1.2E+01V/us, SR(high)=2.4E+01V/us, Av=106.0dB, CMRR=100.0dB, 
* Vsat(+)=2.0V, Vsat(-)=2.0V, Isc=+/-25mA, Rout=  75ohms, Iq= 5mA.
* (input cm clamp *optional*)
* 
* Connections: + - V+V-O 
.SUBCKT LF156A/LT 3 2 7 4 6 
* INPUT
VCM2 40 4 2.0000E+00
RD1 40 80 1.0610E+03
RD2 40 90 1.0610E+03
J1 80 102 12 JM1 
J2 90 103 12 JM2 
CIN 2 3 4.0000E-12
RG1 2 102 2.0000E+00
RG2 3 103 2.0000E+00
** CM CLAMP 
* DCM1 107 103 DM4 
* DCM2 105 107 DM4 
* VCMC 105 4 4.0E+00
* ECMP 106 4 103 4 1 
* RCMP 107 106 1E+04
* DCM3 109 102 DM4 
* DCM4 105 109 DM4 
* ECMN 108 4 102 4 1 
* RCMN 109 108 1E+04
** END CM CLAMP 
C1 80 90 1.5000E-11
ISS 7 12 4.8000E-04
GOSIT 7 12 90 80 2.4000E-04
* INTERMEDIATE 
GCM 0 8 12 0 9.4248E-09
GA 8 0 80 90 9.4248E-04
R2 8 0 1.0000E+05
C2 1 8 3.0000E-11
GB 1 0 8 0 2.8609E+01
RO2 1 0 7.4000E+01
* OUTPUT 
RSO 1 6 1.0000E+00
ECL 18 0 1 6 2.0690E+01
GCL 0 8 20 0 1.0000E+00
RCL 20 0 1.0000E+03
D1 18 20 DM1 
D2 20 18 DM1 
* 
D3A 131 70 DM3 
D3B 13 131 DM3 
GPL 0 8 70 7 1.0000E+00
VC 13 6 3.1552E+00
RPLA 7 70 1.0000E+04
RPLB 7 131 1.0000E+05
D4A 60 141 DM3 
D4B 141 14 DM3 
GNL 0 8 60 4 1.0000E+00
VE 6 14 3.1552E+00
RNLA 60 4 1.0000E+04
RNLB 141 4 1.0000E+05
* 
IP 7 4 4.5200E-03
DSUB 4 7 DM2 
* MODELS 
.MODEL JM1 PJF (IS=3.1500E-11 BETA=9.2528E-04 VTO=-1.000000E+00)
.MODEL JM2 PJF (IS=2.8500E-11 BETA=9.2528E-04 VTO=-9.990000E-01)
.MODEL DM1 D (IS=1.0000E-15)
.MODEL DM2 D (IS=8.0000E-16 BV=5.2800E+01)
.MODEL DM3 D (IS=1.0000E-16)
.MODEL DM4 D (IS=1.0000E-09)
.ENDS LF156A/LT
* 
* - - - - - * FINI LF156A * - - - - - * [OAMM VJ02 05/08/90]
***
*         (C) COPYRIGHT LINEAR TECHNOLOGY CORPORATION 1990
*                       All rights reserved.
* 
*   Linear Technology Corporation hereby grants the users of this
* macromodel a non-exclusive, nontransferrable license to use this
*            macromodel under the following conditions:
* 
* The user agrees that this macromodel is licensed from Linear
* Technology and agrees that the macromodel may be used, loaned,
* given away or included in other model libraries as long as this
* notice and the model in its entirety and unchanged is included.
* No right to make derivative works or modifications to the
* macromodel is granted hereby.  All such rights are reserved.
* 
* This model is provided as is.  Linear Technology makes no
* warranty, either expressed or implied about the suitability or
* fitness of this model for any particular purpose.  In no event
* will Linear Technology be liable for special, collateral,
* incidental or consequential damages in connection with or arising
* out of the use of this macromodel.  It should be remembered that
* models are a simplification of the actual circuit.
* 
* Linear Technology reserves the right to change these macromodels
* without prior notice.  Contact Linear Technology at 1630 McCarthy
* Blvd., Milpitas, CA, 95035-7487 or telephone 408/432-1900 for
* datasheets on the actual amplifiers or the latest macromodels.
* 
* ----------------------------------------------------------------------- *
*$ 
* Linear Technology LF355 op amp model  
* Written: 05-10-1990 18:12:34 Type: PFET input, internal comp.
* Typical specs: 
* Vos=3.0E-03, Ib=3.0E-11, Ios=3.0E-12, GBP=2.5E+06Hz, Phase mar.= 45 deg, 
* SR(low)=6.0E+00V/us, SR(high)=1.2E+01V/us, Av=106.0dB, CMRR=100.0dB, 
* Vsat(+)=2.0V, Vsat(-)=2.0V, Isc=+/-25mA, Rout= 100ohms, Iq= 2mA.
* (input cm clamp *optional*)
* 
* Connections: + - V+V-O 
.SUBCKT LF355/LT 3 2 7 4 6 
* INPUT
VCM2 40 4 2.0000E+00
RD1 40 80 2.1221E+03
RD2 40 90 2.1221E+03
J1 80 102 12 JM1 
J2 90 103 12 JM2 
CIN 2 3 4.0000E-12
RG1 2 102 2.0000E+00
RG2 3 103 2.0000E+00
** CM CLAMP 
* DCM1 107 103 DM4 
* DCM2 105 107 DM4 
* VCMC 105 4 4.0E+00
* ECMP 106 4 103 4 1 
* RCMP 107 106 1E+04
* DCM3 109 102 DM4 
* DCM4 105 109 DM4 
* ECMN 108 4 102 4 1 
* RCMN 109 108 1E+04
** END CM CLAMP 
C1 80 90 1.5000E-11
ISS 7 12 2.4000E-04
GOSIT 7 12 90 80 1.2000E-04
* INTERMEDIATE 
GCM 0 8 12 0 4.7124E-09
GA 8 0 80 90 4.7124E-04
R2 8 0 1.0000E+05
C2 1 8 3.0000E-11
GB 1 0 8 0 4.2768E+01
RO2 1 0 9.9000E+01
* OUTPUT 
RSO 1 6 1.0000E+00
ECL 18 0 1 6 1.9963E+01
GCL 0 8 20 0 1.0000E+00
RCL 20 0 1.0000E+03
D1 18 20 DM1 
D2 20 18 DM1 
* 
D3A 131 70 DM3 
D3B 13 131 DM3 
GPL 0 8 70 7 1.0000E+00
VC 13 6 3.1360E+00
RPLA 7 70 1.0000E+04
RPLB 7 131 1.0000E+05
D4A 60 141 DM3 
D4B 141 14 DM3 
GNL 0 8 60 4 1.0000E+00
VE 6 14 3.1360E+00
RNLA 60 4 1.0000E+04
RNLB 141 4 1.0000E+05
* 
IP 7 4 1.7600E-03
DSUB 4 7 DM2 
* MODELS 
.MODEL JM1 PJF (IS=3.1500E-11 BETA=4.6264E-04 VTO=-1.000000E+00)
.MODEL JM2 PJF (IS=2.8500E-11 BETA=4.6264E-04 VTO=-9.970000E-01)
.MODEL DM1 D (IS=1.0000E-15)
.MODEL DM2 D (IS=8.0000E-16 BV=4.3200E+01)
.MODEL DM3 D (IS=1.0000E-16)
.MODEL DM4 D (IS=1.0000E-09)
.ENDS LF355/LT
* 
* - - - - - * FINI LF355 * - - - - - * [OAMM VJ02 05/08/90]
***
*         (C) COPYRIGHT LINEAR TECHNOLOGY CORPORATION 1990
*                       All rights reserved.
* 
*   Linear Technology Corporation hereby grants the users of this
* macromodel a non-exclusive, nontransferrable license to use this
*            macromodel under the following conditions:
* 
* The user agrees that this macromodel is licensed from Linear
* Technology and agrees that the macromodel may be used, loaned,
* given away or included in other model libraries as long as this
* notice and the model in its entirety and unchanged is included.
* No right to make derivative works or modifications to the
* macromodel is granted hereby.  All such rights are reserved.
* 
* This model is provided as is.  Linear Technology makes no
* warranty, either expressed or implied about the suitability or
* fitness of this model for any particular purpose.  In no event
* will Linear Technology be liable for special, collateral,
* incidental or consequential damages in connection with or arising
* out of the use of this macromodel.  It should be remembered that
* models are a simplification of the actual circuit.
* 
* Linear Technology reserves the right to change these macromodels
* without prior notice.  Contact Linear Technology at 1630 McCarthy
* Blvd., Milpitas, CA, 95035-7487 or telephone 408/432-1900 for
* datasheets on the actual amplifiers or the latest macromodels.
* 
* ----------------------------------------------------------------------- *
*$ 
* Linear Technology LF355A op amp model  
* Written: 05-10-1990 18:14:53 Type: PFET input, internal comp.
* Typical specs: 
* Vos=1.0E-03, Ib=3.0E-11, Ios=3.0E-12, GBP=2.5E+06Hz, Phase mar.= 45 deg, 
* SR(low)=7.0E+00V/us, SR(high)=1.4E+01V/us, Av=106.0dB, CMRR=100.0dB, 
* Vsat(+)=2.0V, Vsat(-)=2.0V, Isc=+/-25mA, Rout= 100ohms, Iq= 2mA.
* (input cm clamp *optional*)
* 
* Connections: + - V+V-O 
.SUBCKT LF355A/LT 3 2 7 4 6 
* INPUT
VCM2 40 4 2.0000E+00
RD1 40 80 2.1221E+03
RD2 40 90 2.1221E+03
J1 80 102 12 JM1 
J2 90 103 12 JM2 
CIN 2 3 4.0000E-12
RG1 2 102 2.0000E+00
RG2 3 103 2.0000E+00
** CM CLAMP 
* DCM1 107 103 DM4 
* DCM2 105 107 DM4 
* VCMC 105 4 4.0E+00
* ECMP 106 4 103 4 1 
* RCMP 107 106 1E+04
* DCM3 109 102 DM4 
* DCM4 105 109 DM4 
* ECMN 108 4 102 4 1 
* RCMN 109 108 1E+04
** END CM CLAMP 
C1 80 90 1.5000E-11
ISS 7 12 2.8000E-04
GOSIT 7 12 90 80 1.4000E-04
* INTERMEDIATE 
GCM 0 8 12 0 4.7124E-09
GA 8 0 80 90 4.7124E-04
R2 8 0 1.0000E+05
C2 1 8 3.0000E-11
GB 1 0 8 0 4.2768E+01
RO2 1 0 9.9000E+01
* OUTPUT 
RSO 1 6 1.0000E+00
ECL 18 0 1 6 2.0124E+01
GCL 0 8 20 0 1.0000E+00
RCL 20 0 1.0000E+03
D1 18 20 DM1 
D2 20 18 DM1 
* 
D3A 131 70 DM3 
D3B 13 131 DM3 
GPL 0 8 70 7 1.0000E+00
VC 13 6 3.1403E+00
RPLA 7 70 1.0000E+04
RPLB 7 131 1.0000E+05
D4A 60 141 DM3 
D4B 141 14 DM3 
GNL 0 8 60 4 1.0000E+00
VE 6 14 3.1403E+00
RNLA 60 4 1.0000E+04
RNLB 141 4 1.0000E+05
* 
IP 7 4 1.7200E-03
DSUB 4 7 DM2 
* MODELS 
.MODEL JM1 PJF (IS=3.1500E-11 BETA=3.9655E-04 VTO=-1.000000E+00)
.MODEL JM2 PJF (IS=2.8500E-11 BETA=3.9655E-04 VTO=-9.990000E-01)
.MODEL DM1 D (IS=1.0000E-15)
.MODEL DM2 D (IS=8.0000E-16 BV=5.2800E+01)
.MODEL DM3 D (IS=1.0000E-16)
.MODEL DM4 D (IS=1.0000E-09)
.ENDS LF355A/LT
* 
* - - - - - * FINI LF355A * - - - - - * [OAMM VJ02 05/08/90]
***
*         (C) COPYRIGHT LINEAR TECHNOLOGY CORPORATION 1990
*                       All rights reserved.
* 
*   Linear Technology Corporation hereby grants the users of this
* macromodel a non-exclusive, nontransferrable license to use this
*            macromodel under the following conditions:
* 
* The user agrees that this macromodel is licensed from Linear
* Technology and agrees that the macromodel may be used, loaned,
* given away or included in other model libraries as long as this
* notice and the model in its entirety and unchanged is included.
* No right to make derivative works or modifications to the
* macromodel is granted hereby.  All such rights are reserved.
* 
* This model is provided as is.  Linear Technology makes no
* warranty, either expressed or implied about the suitability or
* fitness of this model for any particular purpose.  In no event
* will Linear Technology be liable for special, collateral,
* incidental or consequential damages in connection with or arising
* out of the use of this macromodel.  It should be remembered that
* models are a simplification of the actual circuit.
* 
* Linear Technology reserves the right to change these macromodels
* without prior notice.  Contact Linear Technology at 1630 McCarthy
* Blvd., Milpitas, CA, 95035-7487 or telephone 408/432-1900 for
* datasheets on the actual amplifiers or the latest macromodels.
* 
* ----------------------------------------------------------------------- *
*$ 
* Linear Technology LF356 op amp model  
* Written: 05-10-1990 18:23:43 Type: PFET input, internal comp.
* Typical specs: 
* Vos=3.0E-03, Ib=3.0E-11, Ios=3.0E-12, GBP=5.0E+06Hz, Phase mar.= 45 deg, 
* SR(low)=1.2E+01V/us, SR(high)=2.4E+01V/us, Av=106.0dB, CMRR=100.0dB, 
* Vsat(+)=2.0V, Vsat(-)=2.0V, Isc=+/-25mA, Rout=  75ohms, Iq= 5mA.
* (input cm clamp *optional*)
* 
* Connections: + - V+V-O 
.SUBCKT LF356/LT 3 2 7 4 6 
* INPUT
VCM2 40 4 2.0000E+00
RD1 40 80 1.0610E+03
RD2 40 90 1.0610E+03
J1 80 102 12 JM1 
J2 90 103 12 JM2 
CIN 2 3 4.0000E-12
RG1 2 102 2.0000E+00
RG2 3 103 2.0000E+00
** CM CLAMP 
* DCM1 107 103 DM4 
* DCM2 105 107 DM4 
* VCMC 105 4 4.0E+00
* ECMP 106 4 103 4 1 
* RCMP 107 106 1E+04
* DCM3 109 102 DM4 
* DCM4 105 109 DM4 
* ECMN 108 4 102 4 1 
* RCMN 109 108 1E+04
** END CM CLAMP 
C1 80 90 1.5000E-11
ISS 7 12 4.8000E-04
GOSIT 7 12 90 80 2.4000E-04
* INTERMEDIATE 
GCM 0 8 12 0 9.4248E-09
GA 8 0 80 90 9.4248E-04
R2 8 0 1.0000E+05
C2 1 8 3.0000E-11
GB 1 0 8 0 2.8609E+01
RO2 1 0 7.4000E+01
* OUTPUT 
RSO 1 6 1.0000E+00
ECL 18 0 1 6 2.0690E+01
GCL 0 8 20 0 1.0000E+00
RCL 20 0 1.0000E+03
D1 18 20 DM1 
D2 20 18 DM1 
* 
D3A 131 70 DM3 
D3B 13 131 DM3 
GPL 0 8 70 7 1.0000E+00
VC 13 6 3.1552E+00
RPLA 7 70 1.0000E+04
RPLB 7 131 1.0000E+05
D4A 60 141 DM3 
D4B 141 14 DM3 
GNL 0 8 60 4 1.0000E+00
VE 6 14 3.1552E+00
RNLA 60 4 1.0000E+04
RNLB 141 4 1.0000E+05
* 
IP 7 4 4.5200E-03
DSUB 4 7 DM2 
* MODELS 
.MODEL JM1 PJF (IS=3.1500E-11 BETA=9.2528E-04 VTO=-1.000000E+00)
.MODEL JM2 PJF (IS=2.8500E-11 BETA=9.2528E-04 VTO=-9.970000E-01)
.MODEL DM1 D (IS=1.0000E-15)
.MODEL DM2 D (IS=8.0000E-16 BV=4.3200E+01)
.MODEL DM3 D (IS=1.0000E-16)
.MODEL DM4 D (IS=1.0000E-09)
.ENDS LF356/LT
* 
* - - - - - * FINI LF356 * - - - - - * [OAMM VJ02 05/08/90]
***
*         (C) COPYRIGHT LINEAR TECHNOLOGY CORPORATION 1990
*                       All rights reserved.
* 
*   Linear Technology Corporation hereby grants the users of this
* macromodel a non-exclusive, nontransferrable license to use this
*            macromodel under the following conditions:
* 
* The user agrees that this macromodel is licensed from Linear
* Technology and agrees that the macromodel may be used, loaned,
* given away or included in other model libraries as long as this
* notice and the model in its entirety and unchanged is included.
* No right to make derivative works or modifications to the
* macromodel is granted hereby.  All such rights are reserved.
* 
* This model is provided as is.  Linear Technology makes no
* warranty, either expressed or implied about the suitability or
* fitness of this model for any particular purpose.  In no event
* will Linear Technology be liable for special, collateral,
* incidental or consequential damages in connection with or arising
* out of the use of this macromodel.  It should be remembered that
* models are a simplification of the actual circuit.
* 
* Linear Technology reserves the right to change these macromodels
* without prior notice.  Contact Linear Technology at 1630 McCarthy
* Blvd., Milpitas, CA, 95035-7487 or telephone 408/432-1900 for
* datasheets on the actual amplifiers or the latest macromodels.
* 
* ----------------------------------------------------------------------- *
*$ 
* Linear Technology LF356A op amp model  
* Written: 05-10-1990 18:25:11 Type: PFET input, internal comp.
* Typical specs: 
* Vos=1.0E-03, Ib=3.0E-11, Ios=3.0E-12, GBP=5.0E+06Hz, Phase mar.= 45 deg, 
* SR(low)=1.2E+01V/us, SR(high)=2.4E+01V/us, Av=106.0dB, CMRR=100.0dB, 
* Vsat(+)=2.0V, Vsat(-)=2.0V, Isc=+/-25mA, Rout=  75ohms, Iq= 5mA.
* (input cm clamp *optional*)
* 
* Connections: + - V+V-O 
.SUBCKT LF356A/LT 3 2 7 4 6 
* INPUT
VCM2 40 4 2.0000E+00
RD1 40 80 1.0610E+03
RD2 40 90 1.0610E+03
J1 80 102 12 JM1 
J2 90 103 12 JM2 
CIN 2 3 4.0000E-12
RG1 2 102 2.0000E+00
RG2 3 103 2.0000E+00
** CM CLAMP 
* DCM1 107 103 DM4 
* DCM2 105 107 DM4 
* VCMC 105 4 4.0E+00
* ECMP 106 4 103 4 1 
* RCMP 107 106 1E+04
* DCM3 109 102 DM4 
* DCM4 105 109 DM4 
* ECMN 108 4 102 4 1 
* RCMN 109 108 1E+04
** END CM CLAMP 
C1 80 90 1.5000E-11
ISS 7 12 4.8000E-04
GOSIT 7 12 90 80 2.4000E-04
* INTERMEDIATE 
GCM 0 8 12 0 9.4248E-09
GA 8 0 80 90 9.4248E-04
R2 8 0 1.0000E+05
C2 1 8 3.0000E-11
GB 1 0 8 0 2.8609E+01
RO2 1 0 7.4000E+01
* OUTPUT 
RSO 1 6 1.0000E+00
ECL 18 0 1 6 2.0690E+01
GCL 0 8 20 0 1.0000E+00
RCL 20 0 1.0000E+03
D1 18 20 DM1 
D2 20 18 DM1 
* 
D3A 131 70 DM3 
D3B 13 131 DM3 
GPL 0 8 70 7 1.0000E+00
VC 13 6 3.1552E+00
RPLA 7 70 1.0000E+04
RPLB 7 131 1.0000E+05
D4A 60 141 DM3 
D4B 141 14 DM3 
GNL 0 8 60 4 1.0000E+00
VE 6 14 3.1552E+00
RNLA 60 4 1.0000E+04
RNLB 141 4 1.0000E+05
* 
IP 7 4 4.5200E-03
DSUB 4 7 DM2 
* MODELS 
.MODEL JM1 PJF (IS=3.1500E-11 BETA=9.2528E-04 VTO=-1.000000E+00)
.MODEL JM2 PJF (IS=2.8500E-11 BETA=9.2528E-04 VTO=-9.990000E-01)
.MODEL DM1 D (IS=1.0000E-15)
.MODEL DM2 D (IS=8.0000E-16 BV=5.2800E+01)
.MODEL DM3 D (IS=1.0000E-16)
.MODEL DM4 D (IS=1.0000E-09)
.ENDS LF356A/LT
* 
* - - - - - * FINI LF356A * - - - - - * [OAMM VJ02 05/08/90]
***
*         (C) COPYRIGHT LINEAR TECHNOLOGY CORPORATION 1990
*                       All rights reserved.
* 
*   Linear Technology Corporation hereby grants the users of this
* macromodel a non-exclusive, nontransferrable license to use this
*            macromodel under the following conditions:
* 
* The user agrees that this macromodel is licensed from Linear
* Technology and agrees that the macromodel may be used, loaned,
* given away or included in other model libraries as long as this
* notice and the model in its entirety and unchanged is included.
* No right to make derivative works or modifications to the
* macromodel is granted hereby.  All such rights are reserved.
* 
* This model is provided as is.  Linear Technology makes no
* warranty, either expressed or implied about the suitability or
* fitness of this model for any particular purpose.  In no event
* will Linear Technology be liable for special, collateral,
* incidental or consequential damages in connection with or arising
* out of the use of this macromodel.  It should be remembered that
* models are a simplification of the actual circuit.
* 
* Linear Technology reserves the right to change these macromodels
* without prior notice.  Contact Linear Technology at 1630 McCarthy
* Blvd., Milpitas, CA, 95035-7487 or telephone 408/432-1900 for
* datasheets on the actual amplifiers or the latest macromodels.
* 
* ----------------------------------------------------------------------- *
*$ 
* Linear Technology LF412 op amp model  
* Written: 05-10-1990 18:34:44 Type: PFET input, internal comp.
* Typical specs: 
* Vos=5.0E-04, Ib=2.0E-11, Ios=1.5E-11, GBP=5.5E+06Hz, Phase mar.= 45 deg, 
* SR(low)=1.3E+01V/us, SR(high)=2.6E+01V/us, Av=108.0dB, CMRR=100.0dB, 
* Vsat(+)=2.0V, Vsat(-)=2.0V, Isc=+/-25mA, Rout= 100ohms, Iq= 2mA.
* (input cm clamp *optional*)
* 
* Connections: + - V+V-O 
.SUBCKT LF412/LT 3 2 7 4 6 
* INPUT
VCM2 40 4 2.0000E+00
RD1 40 80 9.6458E+02
RD2 40 90 9.6458E+02
J1 80 102 12 JM1 
J2 90 103 12 JM2 
CIN 2 3 4.0000E-12
RG1 2 102 2.0000E+00
RG2 3 103 2.0000E+00
** CM CLAMP 
* DCM1 107 103 DM4 
* DCM2 105 107 DM4 
* VCMC 105 4 4.0E+00
* ECMP 106 4 103 4 1 
* RCMP 107 106 1E+04
* DCM3 109 102 DM4 
* DCM4 105 109 DM4 
* ECMN 108 4 102 4 1 
* RCMN 109 108 1E+04
** END CM CLAMP 
C1 80 90 1.5000E-11
ISS 7 12 5.2000E-04
GOSIT 7 12 90 80 2.6000E-04
* INTERMEDIATE 
GCM 0 8 12 0 1.0367E-08
GA 8 0 80 90 1.0367E-03
R2 8 0 1.0000E+05
C2 1 8 3.0000E-11
GB 1 0 8 0 2.4474E+01
RO2 1 0 9.9000E+01
* OUTPUT 
RSO 1 6 1.0000E+00
ECL 18 0 1 6 2.0774E+01
GCL 0 8 20 0 1.0000E+00
RCL 20 0 1.0000E+03
D1 18 20 DM1 
D2 20 18 DM1 
* 
D3A 131 70 DM3 
D3B 13 131 DM3 
GPL 0 8 70 7 1.0000E+00
VC 13 6 3.1575E+00
RPLA 7 70 1.0000E+04
RPLB 7 131 1.0000E+05
D4A 60 141 DM3 
D4B 141 14 DM3 
GNL 0 8 60 4 1.0000E+00
VE 6 14 3.1575E+00
RNLA 60 4 1.0000E+04
RNLB 141 4 1.0000E+05
* 
IP 7 4 1.3800E-03
DSUB 4 7 DM2 
* MODELS 
.MODEL JM1 PJF (IS=2.7500E-11 BETA=1.0335E-03 VTO=-1.000000E+00)
.MODEL JM2 PJF (IS=1.2500E-11 BETA=1.0335E-03 VTO=-9.995000E-01)
.MODEL DM1 D (IS=1.0000E-15)
.MODEL DM2 D (IS=8.0000E-16 BV=4.3200E+01)
.MODEL DM3 D (IS=1.0000E-16)
.MODEL DM4 D (IS=1.0000E-09)
.ENDS LF412/LT
* 
* - - - - - * FINI LF412 * - - - - - * [OAMM VJ02 05/08/90]
***
*         (C) COPYRIGHT LINEAR TECHNOLOGY CORPORATION 1990
*                       All rights reserved.
* 
*   Linear Technology Corporation hereby grants the users of this
* macromodel a non-exclusive, nontransferrable license to use this
*            macromodel under the following conditions:
* 
* The user agrees that this macromodel is licensed from Linear
* Technology and agrees that the macromodel may be used, loaned,
* given away or included in other model libraries as long as this
* notice and the model in its entirety and unchanged is included.
* No right to make derivative works or modifications to the
* macromodel is granted hereby.  All such rights are reserved.
* 
* This model is provided as is.  Linear Technology makes no
* warranty, either expressed or implied about the suitability or
* fitness of this model for any particular purpose.  In no event
* will Linear Technology be liable for special, collateral,
* incidental or consequential damages in connection with or arising
* out of the use of this macromodel.  It should be remembered that
* models are a simplification of the actual circuit.
* 
* Linear Technology reserves the right to change these macromodels
* without prior notice.  Contact Linear Technology at 1630 McCarthy
* Blvd., Milpitas, CA, 95035-7487 or telephone 408/432-1900 for
* datasheets on the actual amplifiers or the latest macromodels.
* 
* ----------------------------------------------------------------------- *
*$ 
* Linear Technology LF412A op amp model  
* Written: 05-10-1990 18:37:21 Type: PFET input, internal comp.
* Typical specs: 
* Vos=3.0E-04, Ib=1.5E-11, Ios=1.0E-11, GBP=5.7E+06Hz, Phase mar.= 45 deg, 
* SR(low)=1.5E+01V/us, SR(high)=3.0E+01V/us, Av=110.0dB, CMRR=100.0dB, 
* Vsat(+)=2.0V, Vsat(-)=2.0V, Isc=+/-25mA, Rout= 100ohms, Iq= 2mA.
* (input cm clamp *optional*)
* 
* Connections: + - V+V-O 
.SUBCKT LF412A/LT 3 2 7 4 6 
* INPUT
VCM2 40 4 2.0000E+00
RD1 40 80 9.3073E+02
RD2 40 90 9.3073E+02
J1 80 102 12 JM1 
J2 90 103 12 JM2 
CIN 2 3 4.0000E-12
RG1 2 102 2.0000E+00
RG2 3 103 2.0000E+00