* Library of power bipolar transistor model parameters

*  Copyright OrCAD, Inc. 1998 All Rights Reserved.

* $Revision:   1.15  $
* $Author:   RPEREZ  $
* $Date:   20 Apr 1998 13:30:40  $
*
*----------------------------------------------------------------------------
* OrCAD Incorporated would like to acknowledge Sandia National Laboratories
* for the contribution of their measurement-based models included in this
* library.
*----------------------------------------------------------------------------
* The parameters in this model library were derived from the data sheets for
* each part.  Each part was characterize using the Parts option.  Models
* marked with a "(s)" in the comments are electrically equivalent with the
* device they reference.
*** Transistor die process models (50th percentile)
*
* Some manufacturers provide complete and statistically accurate measurements
* for their transistor die, which are selected and packaged to create a
* variety of part numbers.  OrCAD uses this, more complete, information to
* create accurate models.  Each derived model is then checked against its own
* operating limits.  However, the primary differences are:
* - breakdown voltage, which is not (now) used in simulations
* - package type, which relates to heat dissipation and the evolution of
*   package technology
* - graded capability, e.g. guaranteed current gain
*$
.model NSC_36	NPN(Is=321.7f Xti=3 Eg=1.11 Vaf=100 Bf=278.8 Ise=321.7f
+               Ne=1.254 Ikf=.4679 Nk=.7734 Xtb=1.5 Br=1 Isc=27.84n Nc=2.374
+               Ikr=20.67 Rc=1.873 Cjc=22.69p Mjc=.2467 Vjc=.75 Fc=.5
+               Cje=164.2p Mje=.3815 Vje=.75 Tr=6.223u Tf=2.066n Itf=50.26
+               Xtf=284.8K Vtf=2 Rb=.1)
*		National Semiconductor
*		Transistor Databook, 1982, process 36, pg 9-4
*		29 Nov 90	pwt	creation
*$
.model NSC_4A	NPN(Is=457.5f Xti=3 Eg=1.11 Vaf=50 Bf=156.7 Ise=1.346p Ne=1.34
+               Ikf=3.296 Nk=.5961 Xtb=2.2 Br=7.639 Isc=604.1f Nc=2.168
+               Ikr=8.131m Rc=91.29m Cjc=278.7p Mjc=.385 Vjc=.75 Fc=.5 Cje=433p
+               Mje=.5 Vje=.75 Tr=1.412u Tf=37.34n Itf=35.68 Xtf=1.163 Vtf=10
+		Rb=.1)
*		National Semiconductor
*		Transistor Databook, 1982, process 4A, pg 9-7
*		30 Nov 90	pwt	creation
*$
.model NSC_4E   NPN(Is=1.129p Xti=3 Eg=1.11 Vaf=100 Bf=161 Ise=31.17p Ne=1.557
+               Ikf=1.948 Nk=.648 Xtb=2 Br=1 Isc=23.5p Nc=1.489 Ikr=31.34m
+               Rc=.1682 Cjc=251.5p Mjc=.5045 Vjc=.75 Fc=.5 Cje=286.3p
+               Mje=.4961 Vje=.75 Tr=810n Tf=23.64n Itf=10.92 Xtf=.3795 Vtf=10
+		Rb=.1)
*		National Semiconductor
*		Transistor Databook, 1982, process 4E, pg 9-10
*		30 Nov 90	pwt	creation
*$
.model NSC_4F   NPN(Is=2.447p Xti=3 Eg=1.11 Vaf=100 Bf=208.2 Ise=70.69p
+               Ne=1.565 Ikf=.9743 Nk=.6134 Xtb=1.5 Br=12.59 Isc=11.68n
+               Nc=1.835 Ikr=3.86 Rc=.4685 Cjc=142p Mjc=.4353 Vjc=.75 Fc=.5
+               Cje=188.5p Mje=.4878 Vje=.75 Tr=194.2n Tf=19.85n Itf=164.1
+               Xtf=5.945 Vtf=10 Rb=.1)
*		National Semiconductor
*		Transistor Databook, 1982, process 4F, pg 9-13
*		30 Nov 90	pwt	creation
*$
.model NSC_5A   PNP(Is=66.19f Xti=3 Eg=1.11 Vaf=100 Bf=137.6 Ise=862.2f
+               Ne=1.481 Ikf=1.642 Nk=.5695 Xtb=2 Br=5.88 Isc=273.5f Nc=1.24
+               Ikr=3.555 Rc=79.39m Cjc=870.4p Mjc=.6481 Vjc=.75 Fc=.5
+               Cje=390.1p Mje=.4343 Vje=.75 Tr=235.4n Tf=23.21n Itf=71.33
+               Xtf=5.982 Vtf=10 Rb=.1)
*		National Semiconductor
*		Transistor Databook, 1982, process 5A, pg 9-30
*		30 Nov 90	pwt	creation
*$
.model NSC_5E   PNP(Is=632.4f Xti=3 Eg=1.11 Vaf=100 Bf=112.1 Ise=962.8f
+               Ne=1.373 Ikf=2.187 Nk=.6196 Xtb=2.1 Br=66.4 Isc=974.4f Nc=1.207
+               Ikr=125.8 Rc=.2066 Cjc=508.9p Mjc=.4847 Vjc=.75 Fc=.5
+               Cje=379.8p Mje=.4937 Vje=.75 Tr=89.17n Tf=17.41n Itf=5.921
+               Xtf=1.062 Vtf=10 Rb=.1)
*		National Semiconductor
*		Transistor Databook, 1982, process 5E, pg 9-33
*		30 Nov 90	pwt	creation
*$
.model NSC_5F   PNP(Is=51.23f Xti=3 Eg=1.11 Vaf=100 Bf=434.1 Ise=51.23f Ne=1.22
+               Ikf=.3883 Nk=.5544 Xtb=2.2 Br=55.47 Isc=51.23f Nc=1.205
+               Ikr=10.87 Rc=.3443 Cjc=136.9p Mjc=.3155 Vjc=.75 Fc=.5
+               Cje=179.9p Mje=.4294 Vje=.75 Tr=20.25n Tf=13.05n Itf=6.85
+               Xtf=1.573 Vtf=10 Rb=.1)
*		National Semiconductor
*		Transistor Databook, 1982, process 5F, pg 9-36
*		30 Nov 90	pwt	creation
*$
*** start of library *********************************************************
*$
.model Q2N1893	NPN(Is=2.079f Xti=3 Eg=1.11 Vaf=100 Bf=167.2 Ise=24.36f
+		Ne=1.357 Ikf=1.088 Nk=.8271 Xtb=1.5 Br=1.502 Isc=264.6f
+		Nc=1.545 Ikr=.3028 Rc=.9069 Cjc=45.29p Mjc=.31 Vjc=.5 Fc=.5
+		Cje=58.12p Mje=.441 Vje=.5 Tr=1u Tf=738.1p Itf=2.376 Xtf=24.93
+		Vtf=10)
*		HARRIS		pid=q2n1893	case=TO205AD
*		91-09-06 dsq
*$
.model Q2N2405	NPN(Is=2.079f Xti=3 Eg=1.11 Vaf=100 Bf=167.2 Ise=24.36f
+		Ne=1.357 Ikf=1.088 Nk=.8271 Xtb=1.5 Br=1.502 Isc=264.6f
+		Nc=1.545 Ikr=.3028 Rc=.9069 Cjc=45.29p Mjc=.31 Vjc=.5 Fc=.5
+		Cje=58.12p Mje=.441 Vje=.5 Tr=1u Tf=738.1p Itf=2.376 Xtf=24.93
+		Vtf=10)
*		HARRIS		pid=q2n1893	case=TO205AD
*		91-09-06 dsq
*$
.model Q2N3055	NPN(Is=974.4f Xti=3 Eg=1.11 Vaf=50 Bf=99.49 Ne=1.941
+		Ise=902.5p Ikf=4.029 Xtb=1.5 Br=2.949 Nc=2 Isc=0 Ikr=0 Rc=.1
+		Cjc=276p Vjc=.75 Mjc=.3333 Fc=.5 Cje=569.1p Vje=.75 Mje=.3333
+		Tr=971.7n Tf=39.11n Itf=20 Vtf=10 Xtf=2 Rb=.1)
*		Texas Inst.	pid=2N3055	case=TO3
*		Original Library
*		02 Jan 91	pwt	change Rb
*$
*.model Q2N3440	ako:NSC_36	NPN()	; case TO-39
* pwt 07-Jun-91	commented out - almost a power device, but not in
*		the TO-39 package.  Use model in BIPOLAR.LIB
*$
*
* TEMPERATURE: -55C
* RADIATION LEVEL: NONE
*
* AN INDICATION OF SATURATED SWITCHING TIME ACCURACY, USING
* IC(NOMINAL) = 50MA, AND FORCED BETA = 10, IS CONTAINED IN THE
* FOLLOWING TABLE:
*
*       MEASURED       SIMULATED
* TON    48 NS          45 NS
* TOFF  1.4 US         1.4 US
*
.MODEL Q2N3700/-55C  NPN     (
+         IS = 4.117795E-14
+         BF = 177.345
+         NF = 0.9867005
+        VAF = 51.4558295
+        IKF = 0.8546
+        ISE = 2.426642E-15
+         NE = 1.24
+         BR = 11.7312096
+         NR = 0.9936958
+        VAR = 27.1282914
+        IKR = 1.6372581
+        ISC = 1.275888E-14
+         NC = 1.0513808
+         RB = 13.1161662
+        IRB = 6E-5
+        RBM = 0.09325
+         RE = 9.231E-3
+         RC = 0.4
+        CJE = 6.021897E-11
+        VJE = 0.6515679
+        MJE = 0.3237043
+         TF = 8.610978E-10
+        XTF = 4.34
+        VTF = 1.3
+        ITF = 0.46724
+        PTF = 2.93
+        CJC = 1.78013E-11
+        VJC = 0.4859917
+        MJC = 0.3579477
+       XCJC = 1
+         TR = 2.96E-7
+        CJS = 0
+        VJS = .75
+        MJS = 0
+        XTB = 2.4248527
+         EG = 1.135
+        XTI = 8.6212025
+         KF = 0
+         AF = 1
+         FC = 0.8533463
+ )
*$
*
* NEUTRON FLUENCE: 1.04E12/CM^2
* TEMPERATURE: -55C
*
* AN INDICATION OF SATURATED SWITCHING TIME ACCURACY, USING
* IC(NOMINAL) = 50MA, AND FORCED BETA = 10, IS CONTAINED IN THE
* FOLLOWING TABLE:
*
*        MEASURED     SIMULATED
* TON     60 NS        51 NS
* TOFF   1.2 US       1.4 US
*
.MODEL Q2N3700/-55C/RAD NPN      (
+         IS = 0.43E-13
+         BF = 153.48
+         NF = 0.9860
+        VAF = 73.762
+        IKF = 1.8
+        ISE = 0.91E-13
+         NE = 1.410
+         BR = 38
+         NR = 0.9846
+        VAR = 23.698
+        IKR = 0.0270
+        ISC = 0.380E-11
+         NC = 1.341
+         RB = 11.677
+        IRB = 2.030E-4
+        RBM = 0.01
+         RE = 0.0214
+         RC = 0.2
+        CJE = 0.69E-10
+        VJE = 0.6819635
+        MJE = 0.3303074
+         TF = 0.83E-9
+        XTF = 13.337
+        VTF = .65
+        ITF = 0.8292
+        PTF = 22.80
+        CJC = 2.18783E-11
+        VJC = 0.479755411
+        MJC = 0.3059024
+       XCJC = 1
+         TR = 1.80E-7
+        CJS = 0
+        VJS = .75
+        MJS = 0
+        XTB = 1.961
+         EG = 1.135
+        XTI = 5.327
+         KF = 0
+         AF = 1
+         FC = .86
+ )
*$
*
* TEMPERATURE: 125C
* RADIATION LEVEL: NONE
* AN INDICATION OF SATURATED SWITCHING TIME ACCURACY, USING
* IC(NOMINAL) = 50MA, AND FORCED BETA = 10, IS CONTAINED IN THE
* FOLLOWING TABLE:
*
*        MEASURED    SIMULATED
* TON     41 NS        38 NS
* TOFF   4.1 US       3.9 US
*
.MODEL Q2N3700/125C  NPN   (
+         IS = 6.918972E-14
+         BF = 165.6489607
+         NF = 1.0114343
+        VAF = 51.4558295
+        IKF = 0.5891324
+        ISE = 9.571085E-16
+         NE = 1.1515444
+         BR = 23.1842159
+         NR = 1.0484277
+        VAR = 27.1282914
+        IKR = 0.4013044
+        ISC = 3.703242E-14
+         NC = 1.0516303
+         RB = 13.1161662
+        IRB = 6.583436E-4
+        RBM = 0.4001322
+         RE = 1.423E-3
+         RC = 0.5198347
+        CJE = 6.021897E-11
+        VJE = 0.6515679
+        MJE = 0.3237043
+         TF = 8.610978E-10
+        XTF = 4.34
+        VTF = 1.3
+        ITF = 0.46724
+        PTF = 2.93
+        CJC = 1.78013E-11
+        VJC = 0.4859917
+        MJC = 0.3579477
+       XCJC = 1
+         TR = 4.573E-7
+        CJS = 0
+        VJS = .75
+        MJS = 0
+        XTB = 1.088474
+         EG = 1.086
+        XTI = 6.5521299
+         KF = 0
+         AF = 1
+         FC = 0.8533463
+ )
*$
*
* GENERIC FUNCTIONAL EQUIVALENT = 2N3700
* TYPE: TRANSISTOR
* SUBTYPE: BIPOLAR PWR
* PARAMETER SET(S) EXTRACTED FROM MEASURED DATA
* CAN BE USED FOR ALL OF THE FOLLOWING DEVICES:
* 2N3700
* 2N3019
* 2C3019HV
* 2N3700JV
* 2N3700JTXV
*
***************************************************************************
*               PLEASE NOTE: PARAMETER SET(S) SHOULD BE
*               USED ONLY AT NOTED TEMPERATURE LEVELS
***************************************************************************
*
* TEMPERATURE: 27C
* RADIATION LEVEL: NONE
*
* AN INDICATION OF SATURATED SWITCHING TIME ACCURACY, USING
* IC(NOMINAL) = 50MA, AND FORCED BETA = 10, IS CONTAINED IN THE
* FOLLOWING TABLE:
*
*        MEASURED    SIMULATED
* TON     39 NS       39 NS
* TOFF   2.7 US      2.7 US
*
.MODEL Q2N3700/27C  NPN     (
+         IS = 5.615409E-14
+         BF = 174.8841184
+         NF = 0.994637
+        VAF = 51.4558295
+        IKF = 0.87465
+        ISE = 1.983983E-15
+         NE = 1.1666507
+         BR = 12.347054
+         NR = 0.9662903
+        VAR = 27.1282914
+        IKR = 0.2306524
+        ISC = 2.140821E-14
+         NC = 1.0385313
+         RB = 13.1161662
+        IRB = 6.583436E-4
+        RBM = 0.4001322
+         RE = 9.200349E-3
+         RC = 0.4
+        CJE = 6.021897E-11
+        VJE = 0.6515679
+        MJE = 0.3237043
+         TF = 8.610978E-10
+        XTF = 4.34
+        VTF = 1.3
+        ITF = 0.46724
+        PTF = 2.93
+        CJC = 1.78013E-11
+        VJC = 0.4859917
+        MJC = 0.3579477
+       XCJC = 1
+         TR = 2.2E-7
+        CJS = 0
+        VJS = .75
+        MJS = 0
+        XTB = 1.50
+         EG = 1.11
+        XTI = 6.696
+         KF = 0
+         AF = 1
+         FC = 0.8533463
+ )
*$
*
* GENERIC FUNCTIONAL EQUIVALENT = 2N3700
* TYPE: TRANSISTOR
* SUBTYPE: BIPOLAR PWR
* PARAMETER SET(S) EXTRACTED FROM MEASURED DATA
* CAN BE USED FOR ALL OF THE FOLLOWING DEVICES:
* 2N3700
* 2N3019
* 2C3019HV
* 2N3700JV
* 2N3700JTXV
*
***************************************************************************
*               PLEASE NOTE: PARAMETER SET(S) SHOULD BE USED
*               ONLY AT NOTED TEMPERATURE AND RADIATION LEVELS
***************************************************************************
*
* NEUTRON FLUENCE: 1.04E12/CM^2
* TEMPERATURE: 27C
*
* AN INDICATION OF SATURATED SWITCHING TIME ACCURACY, USING
* IC(NOMINAL) = 50MA, AND FORCED BETA = 10, IS CONTAINED IN THE
* FOLLOWING TABLE:
*
*        MEASURED     SIMULATED
* TON     53 NS         49 NS
* TOFF   2.2 US        2.4 US
*
.MODEL Q2N3700/27C/RAD1 NPN      (
+         IS = 0.48E-13
+         BF = 139.38
+         NF = 0.9875
+        VAF = 73.762
+        IKF = 0.6772
+        ISE = 0.83E-13
+         NE = 1.432
+         BR = 21.041
+         NR = 1.009
+        VAR = 23.6980048
+        IKR = 0.9880
+        ISC = 1.76E-12
+         NC = 1.253
+         RB = 11.667
+        IRB = 2.06405E-4
+        RBM = 0.01
+         RE = 0.0247948
+         RC = 1.3
+        CJE = 0.69E-10
+        VJE = 0.6819635
+        MJE = 0.3303074
+         TF = 0.83E-9
+        XTF = 13.337
+        VTF = 0.65
+        ITF = 0.8292
+        PTF = 22.8
+        CJC = 2.18783E-11
+        VJC = 0.4797554
+        MJC = 0.3059024
+       XCJC = 1
+         TR = 3.79E-7
+        CJS = 0
+        VJS = .75
+        MJS = 0
+        XTB = 1.5
+         EG = 1.11
+        XTI = 5.013
+         KF = 0
+         AF = 1
+         FC = 0.86
+ )
*$
*
* NEUTRON FLUENCE: 3.13E12/CM^2
* TEMPERATURE: 27C
*
* AN INDICATION OF SATURATED SWITCHING TIME ACCURACY, USING
* IC(NOMINAL) = 50MA, AND FORCED BETA = 10, IS CONTAINED IN THE
* FOLLOWING TABLE:
*
*        MEASURED      SIMULATED
* TON     44 NS         44 NS
* TOFF   1.1 US        1.1 US
*
.MODEL Q2N3700/27C/RAD2  NPN     (
+         IS = 5.449688E-14
+         BF = 125.8736
+         NF = 0.9999931
+        VAF = 20.7235
+        IKF = 4.4952152
+        ISE = 2.664315E-13
+         NE = 1.3529434
+         BR = 7.12354
+         NR = 0.9988728
+        VAR = 30.7050179
+        IKR = 3.4858367
+        ISC = 2.25085E-10
+         NC = 1.5600927
+         RB = 8.8376
+        IRB = 1.213E-4
+        RBM = 0.01
+         RE = 0.0567
+         RC = 0.8765234
+        CJE = 5.984282E-11
+        VJE = 0.6736949
+        MJE = 0.3291609
+         TF = 8.3215E-10
+        XTF = 19.63478
+        VTF = 1.2325
+        ITF = 1.111876
+        PTF = 85
+        CJC = 1.775269E-11
+        VJC = 0.4886209
+        MJC = 0.3586461
+       XCJC = 1
+         TR = 3.65E-7
+        CJS = 0
+        VJS = .75
+        MJS = 0
+        XTB = 1.71
+         EG = 1.110
+        XTI = 5.73
+         KF = 0
+         AF = 1
+         FC = 0.87
+ )
*$
*
* NEUTRON FLUENCE: 2.12E13/CM^2
* TEMPERATURE: 27C
*
* AN INDICATION OF SATURATED SWITCHING TIME ACCURACY, USING
* IC(NOMINAL) = 50MA, AND FORCED BETA = 10, IS CONTAINED IN THE
* FOLLOWING TABLE:
*
*       MEASURED     SIMULATED
* TON    49 NS        45 NS
* TOFF  184 NS       189 NS
*
.MODEL Q2N3700/27C/RAD3  NPN     (
+         IS = 8.987753E-14
+         BF = 78.808
+         NF = 1.0212677
+        VAF = 65.3
+        IKF = 3.011
+        ISE = 5.499321E-12
+         NE = 1.4407615
+         BR = 1.6447
+         NR = 1.0088319
+        VAR = 29.9862426
+        IKR = 0.3026766
+        ISC = 6.184686E-10
+         NC = 1.498
+         RB = 7.725049
+        IRB = 5.907547E-3
+        RBM = 0.01
+         RE = 2.6E-3
+         RC = 1.251
+        CJE = 5.953838E-11
+        VJE = 0.6827263
+        MJE = 0.3445074
+         TF = 6.4E-10
+        XTF = 10.059
+        VTF = 1.0280871
+        ITF = 0.5
+        PTF = 11.2307364
+        CJC = 1.67289E-11
+        VJC = 0.4270086
+        MJC = 0.3686295
+       XCJC = 1
+         TR = 7.23498E-7
+        CJS = 0
+        VJS = .75
+        MJS = 0
+        XTB = 1.25
+         EG = 1.11
+        XTI = 4.8
+         KF = 0
+         AF = 1
+         FC = 0.5
+ )
*$
*
* NEUTRON FLUENCE: 2.51E12/CM^2
* TEMPERATURE: 27C
*
* AN INDICATION OF SATURATED SWITCHING TIME ACCURACY, USING
* IC(NOMINAL) = 50MA, AND FORCED BETA = 10, IS CONTAINED IN THE
* FOLLOWING TABLE:
*
*       MEASURED     SIMULATED
* TON    40 NS        39 NS
* TOFF  1.5 US       1.5 US
.MODEL Q2N3700/27C/RAD4  NPN     (
+         IS = 6.704218E-14
+         BF = 167.9036428
+         NF = 0.9979085
+        VAF = 56.500531
+        IKF = 1.397419
+        ISE = 4.872188E-13
+         NE = 1.4077182
+         BR = 3.1768659
+         NR = 0.9888872
+        VAR = 23.3346726
+        IKR = 1
+        ISC = 5.143987E-10
+         NC = 1.6659023
+         RB = 24.5367676
+        IRB = 1.57E-4
+        RBM = 0.1
+         RE = 2.29E-3
+         RC = 2.692
+        CJE = 5.674336E-11
+        VJE = 0.6850779
+        MJE = 0.3397329
+         TF = 8.35E-10
+        XTF = 3.328
+        VTF = 1.25
+        ITF = 0.2465
+        PTF = 9.335585
+        CJC = 1.469599E-11
+        VJC = 0.4217319
+        MJC = 0.3618219
+       XCJC = 1
+         TR = 4.876243E-07
+        CJS = 0
+        VJS = .75
+        MJS = 0
+        XTB = 1.61
+         EG = 1.11
+        XTI = 7.164
+         KF = 0
+         AF = 1
+         FC = 0.8
+ )
*$
*
* TEMPERATURE: 75C
* RADIATION LEVEL: NONE
*
* AN INDICATION OF SATURATED SWITCHING TIME ACCURACY, USING
* IC(NOMINAL) = 50MA, AND FORCED BETA = 10, IS CONTAINED IN THE
* FOLLOWING TABLE:
*
*       MEASURED     SIMULATED
* TON    42 NS        41 NS
* TOFF  3.5 US       3.4 US
*
.MODEL Q2N3700/75C  NPN     (
+         IS = 5.510497E-14
+         BF = 225.3852813
+         NF = 1.0015157
+        VAF = 88.8566677
+        IKF = 6.8440532
+        ISE = 4.183493E-16
+         NE = 1.0555607
+         BR = 14.8699191
+         NR = 0.9954512
+        VAR = 24.9282896
+        IKR = 0.48
+        ISC = 6.522129E-14
+         NC = 1.076
+         RB = 16.9188334
+        IRB = 2E-4
+        RBM = 0.8765
+         RE = 4.02E-3
+         RC = 0.324
+        CJE = 6.042587E-11
+        VJE = 0.6702672
+        MJE = 0.3305219
+         TF = 8.3E-10
+        XTF = 7.132
+        VTF = 0.7089654
+        ITF = 0.45109
+        PTF = 22.8
+        CJC = 1.796938E-11
+        VJC = 0.4048884
+        MJC = 0.3354215
+       XCJC = 1
+         TR = 3.543E-07
+        CJS = 0
+        VJS = .75
+        MJS = 0
+        XTB = 1.1467848
+         EG = 1.11
+        XTI = 6.451214
+         KF = 0
+         AF = 1
+         FC = 0.9
+ )
*$
*
* GENERIC FUNCTIONAL EQUIVALENT = 2N3700
* TYPE: TRANSISTOR
* SUBTYPE: BIPOLAR PWR
* PARAMETER SET(S) EXTRACTED FROM MEASURED DATA
* CAN BE USED FOR ALL OF THE FOLLOWING DEVICES:
* 2N3700
* 2N3019
* 2C3019HV
* 2N3700JV
* 2N3700JTXV
*
***************************************************************************
*               PLEASE NOTE: TEMPERATURE-COMPENSATED PARAMETER
*               SET(S) SHOULD BE USED WITH A ".TEMP"
*               STATEMENT OVER THE RANGE OF -55C TO +125C)
***************************************************************************
*
* TEMPERATURE: -55 TO 125C
* RADIATION LEVEL: NONE
*
* AN INDICATION OF SATURATED SWITCHING TIME ACCURACY, USING
* IC(NOMINAL) = 50MA, AND FORCED BETA = 10, IS CONTAINED IN THE
* FOLLOWING TABLE:
*
* T-ON     MEASURED     SIMULATED      T-OFF      MEASURED      SIMULATED
* -55C     48 NSEC      41 NSEC        -55C       1400 NSEC     1700 NSEC
* +27C     39 NSEC      39 NSEC        +27C       2700 NSEC     2700 NSEC
* +125C    41 NSEC      35 NSEC        +125C      4100 NSEC     4200 NSEC
*
*
.MODEL Q2N3700/TEMP  NPN     (
+         IS = 5.615409E-14
+         BF = 174.8841184
+         NF = 0.994637
+        VAF = 51.4558295
+        IKF = 0.87465
+        ISE = 1.983983E-15
+         NE = 1.1666507
+         BR = 12.347054
+         NR = 0.9662903
+        VAR = 27.1282914
+        IKR = 0.2306524
+        ISC = 2.140821E-14
+         NC = 1.0385313
+         RB = 13.1161662
+        IRB = 6.583436E-4
+        RBM = 0.4001322
+         RE = 9.200349E-3
+         RC = 0.4
+        CJE = 6.021897E-11
+        VJE = 0.6515679
+        MJE = 0.3237043
+         TF = 8.610978E-10
+        XTF = 4.34
+        VTF = 1.3
+        ITF = 0.46724
+        PTF = 2.93
+        CJC = 1.78013E-11
+        VJC = 0.4859917
+        MJC = 0.3579477
+       XCJC = 1
+         TR = 2.2E-7
+        CJS = 0
+        VJS = .75
+        MJS = 0
+        XTB = 1.50
+         EG = 1.11
+        XTI = 6.696
+         KF = 0
+         AF = 1
+         FC = 0.8533463
+ )
*$
*
* GENERIC FUNCTIONAL EQUIVALENT = 2N3716
* TYPE: TRANSISTOR
* SUBTYPE: BIPOLAR_PWR
* 1 TEMPERATURE DEPENDENT MODEL OF THE 2N3716 TRANSISTOR.
* PARAMETER SET EXTRACTED FROM MEASURED DATA
* CAN BE USED FOR THE FOLLOWING DEVICES:
* PM54
* 2N3716
*
****************************************************************************
*        PLEASE NOTE: TEMPERATURE COMPENSATED PARAMETER
*                     SET(S) SHOULD BE USED WITH A ".TEMP"
*                     STATEMENT OVER THE RANGE OF -55 C TO 125 C.
****************************************************************************
*
* TEMPERATURE: -55C TO 125C
* RADIATION LEVEL: NONE
*
* AN INDICATION OF SATURATED SWITCHING TIME ACCURACY USING
* IC(NOMINAL) = 1.0A , AND  FORCED BETA = 10, IS CONTAINED IN THE
* FOLLOWING TABLE:
*
*
*
* T-ON     MEASURED    SIMULATED   T-OFF       MEASURED     SIMULATED
* -55C     237 NSEC    308 NSEC    -55C        3440 NSEC    3327 NSEC
* +27C     291 NSEC    300 NSEC    +27C        5850 NSEC    5677 NSEC
* +125C    386 NSEC    292 NSEC    +125C       8880 NSEC    9531 NSEC
*
*
.MODEL Q2N3716  NPN     (
+         IS = 2.045956E-12
+         BF = 263.48
+         NF = 0.9884084
+        VAF = 156.2455357
+        IKF = 9.89
+        ISE = 2.026827E-12
+         NE = 1.2343538
+         BR = 7.0885582
+         NR = 0.9702197
+        VAR = 73.8029974
+        IKR = 1.8
+        ISC = 1.494404E-9
+         NC = 1.5153059
+         RB = 16.918
+        IRB = 0.0132
+        RBM = 0.0208
+         RE = 2.731568E-3
+         RC = 0.18900
+        CJE = 8.257673E-10
+        VJE = 0.6267016
+        MJE = 0.3837888
+         TF = 2.414E-08
+        XTF = 1.833
+        VTF = 2
+        ITF = 13.0
+        PTF = 10.8064163
+        CJC = 4.124871E-10
+        VJC = 0.427344
+        MJC = 0.40638
+       XCJC = 1
+         TR = 3.66657E-7
+        CJS = 0
+        VJS = .75
+        MJS = 0
+        XTB = 1.7695
+         EG = 1.11
+        XTI = 0.415
+         KF = 0
+         AF = 1
+         FC = 0.8447749
+ )
*$
*
* TEMPERATURE: -55 C
* RADIATION LEVEL: NONE
*
* AN INDICATION OF SATURATED SWITCHING TIME ACCURACY USING
* IC(NOMINAL) = 1.0A , AND  FORCED BETA = 10, IS CONTAINED IN THE
* FOLLOWING TABLE:
*
*
*           MEASURED     SIMULATED
* TON        237 NS       283 NS
* TOFF       3.4 US       3.5 US
*
.MODEL Q2N3716/-55C  NPN     (
+         IS = 2.638013E-11
+         BF = 270.42
+         NF = 1.05
+        VAF = 156.2455357
+        IKF = 9.9
+        ISE = 2.111423E-11
+         NE = 1.4929103
+         BR = 19.59
+         NR = 1.0479859
+        VAR = 73.8029974
+        IKR = 1.024
+        ISC = 7.3E-9
+         NC = 1.8712794
+         RB = 11.918
+        IRB = 0.0132
+        RBM = 0.0208
+         RE = 2.73E-3
+         RC = 0.5
+        CJE = 8.257673E-10
+        VJE = 0.6267016
+        MJE = 0.3837888
+         TF = 2.414E-08
+        XTF = 1.833
+        VTF = 2
+        ITF = 13.0
+        PTF = 10.8064163
+        CJC = 4.124871E-10
+        VJC = 0.427344
+        MJC = 0.40638
+       XCJC = 1
+         TR = 2.019324E-07
+        CJS = 0
+        VJS = .75
+        MJS = 0
+        XTB = 3.2206836
+         EG = 1.135
+        XTI = 0.1
+         KF = 0
+         AF = 1
+         FC = 0.8447749
+ )
*$
*
*
* TEMPERATURE: 125 C
* RADIATION LEVEL: NONE
*
* AN INDICATION OF SATURATED SWITCHING TIME ACCURACY USING
* IC(NOMINAL) = 1.0A , AND  FORCED BETA = 10, IS CONTAINED IN THE
* FOLLOWING TABLE:
*
*
*           MEASURED     SIMULATED
* TON        386 NS       280 NS
* TOFF       8.9 US       8.8 US
*
.MODEL Q2N3716/125C  NPN     (
+         IS = 2.219037E-12
+         BF = 114.3988372
+         NF = 0.97
+        VAF = 156.2455357
+        IKF = 4.747
+        ISE = 4.889277E-13
+         NE = 1.1772812
+         BR = 4.4855872
+         NR = 0.9267019
+        VAR = 73.8029974
+        IKR = 10
+        ISC = 4.869388E-10
+         NC = 1.4329447
+         RB = 19.918
+        IRB = 0.0132
+        RBM = 0.0208
+         RE = 2.73E-3
+         RC = 0.18
+        CJE = 8.257673E-10
+        VJE = 0.6267016
+        MJE = 0.3837888
+         TF = 2.414E-08
+        XTF = 1.833
+        VTF = 2
+        ITF = 13.0
+        PTF = 10.8064163
+        CJC = 4.124871E-10
+        VJC = 0.427344
+        MJC = 0.40638
+       XCJC = 1
+         TR = 5.26987E-07
+        CJS = 0
+        VJS = .75
+        MJS = 0
+        XTB = 1.3994873
+         EG = 1.086
+        XTI = 1.581281
+         KF = 0
+         AF = 1
+         FC = 0.8447749
+ )
*$
*
*
* GENERIC FUNCTIONAL EQUIVALENT = 2N3716
* TYPE: TRANSISTOR
* SUBTYPE: BIPOLAR_PWR
* 4 PARAMETER SETS AT VARIOUS TEMPERATURES OF THE 2N3716
* TRANSISTOR.
* PARAMETER SETS EXTRACTED FROM MEASURED DATA
* CAN BE USED FOR THE FOLLOWING DEVICES:
* PM54
* 2N3716
*
****************************************************************************
*      PLEASE NOTE: PARAMETER SET(S) SHOULD BE
*                   USED ONLY AT NOTED TEMPERATURE LEVELS
****************************************************************************
*
* TEMPERATURE: 27C
* RADIATION LEVEL: NONE
*
* AN INDICATION OF SATURATED SWITCHING TIME ACCURACY USING
* IC(NOMINAL) = 1.0A , AND  FORCED BETA = 10, IS CONTAINED IN THE
* FOLLOWING TABLE:
*
*
*
*           MEASURED     SIMULATED
* TON        291 NS      300 NS
* TOFF       5.8 NS      5.7 US
*
*
.MODEL Q2N3716/27C  NPN     (
+         IS = 2.045956E-12
+         BF = 263.48
+         NF = 0.9884084
+        VAF = 156.2455357
+        IKF = 9.89
+        ISE = 2.026827E-12
+         NE = 1.2343538
+         BR = 7.0885582
+         NR = 0.9702197
+        VAR = 73.8029974
+        IKR = 1.8
+        ISC = 1.494404E-9
+         NC = 1.5153059
+         RB = 16.918
+        IRB = 0.0132
+        RBM = 0.0208
+         RE = 2.731568E-3
+         RC = 0.18900
+        CJE = 8.257673E-10
+        VJE = 0.6267016
+        MJE = 0.3837888
+         TF = 2.414E-08
+        XTF = 1.833
+        VTF = 2
+        ITF = 13.0
+        PTF = 10.8064163
+        CJC = 4.124871E-10
+        VJC = 0.427344
+        MJC = 0.40638
+       XCJC = 1
+         TR = 3.66657E-7
+        CJS = 0
+        VJS = .75
+        MJS = 0
+        XTB = 1.7695
+         EG = 1.11
+        XTI = 0.415
+         KF = 0
+         AF = 1
+         FC = 0.8447749
+ )
*$
*
*
*
* GENERIC FUNCTIONAL EQUIVALENT = 2N3716
* TYPE: TRANSISTOR
* SUBTYPE: BIPOLAR_PWR
* 1 RADIATION PARAMETER SET OF THE 2N3716 TRANSISTOR.
* PARAMETER SET EXTRACTED FROM MEASURED DATA
* CAN BE USED FOR THE FOLLOWING DEVICES:
* PM54
* 2N3716
*
****************************************************************************
*        PLEASE NOTE: PARAMETER SET(S) SHOULD BE USED
*                     ONLY AT TEMPERATURE AND RADIATION LEVEL INDICATED
****************************************************************************
*
* NEUTRON FLUENCE: 2.21E12/CM^2
* TEMPERATURE: 27C
*
* AN INDICATION OF SATURATED SWITCHING TIME ACCURACY USING
* IC(NOMINAL) = 1.0A , AND  FORCED BETA = 10, IS CONTAINED IN THE
* FOLLOWING TABLE:
*
*
*           MEASURED     SIMULATED
* TON        335 NS       410 NS
* TOFF       1.6 US       1.6 US
.MODEL Q2N3716/27C/RAD   NPN     (
+         IS = 3.694533E-12
+         BF = 127.29
+         NF = 1.0133318
+        VAF = 185.1973085
+        IKF = 4.7653
+        ISE = 2.3E-10
+         NE = 1.4405543
+         BR = 2.0229536
+         NR = 1.038
+        VAR = 67.4992417
+        IKR = 1.4964087
+        ISC = 1.16077E-8
+         NC = 1.6171936
+         RB = 2.723
+        IRB = 0.0121136
+        RBM = 3.9674546
+         RE = 9.88E-3
+         RC = 0.1944
+        CJE = 8.262069E-10
+        VJE = 0.6274326
+        MJE = 0.3890282
+         TF = 2.418418E-8
+        XTF = 5.35
+        VTF = 0.3735
+        ITF = 6.973
+        PTF = 40.2175103
+        CJC = 4.11662E-10
+        VJC = 0.4292116
+        MJC = 0.3907651
+       XCJC = 1
+         TR = 5.43789E-07
+        CJS = 0
+        VJS = .75
+        MJS = 0
+        XTB = 1.02
+         EG = 1.11
+        XTI = 3.95
+         KF = 0
+         AF = 1
+         FC = 0.8
+ )
*$
*
* TEMPERATURE: 75 C
* RADIATION LEVEL: NONE
*
* AN INDICATION OF SATURATED SWITCHING TIME ACCURACY USING
* IC(NOMINAL) = 1.0A , AND  FORCED BETA = 10, IS CONTAINED IN THE
* FOLLOWING TABLE:
*
*
*           MEASURED     SIMULATED
* TON        350 NS       419 NS
* TOFF       7.3 US       7.3 US
*
.MODEL Q2N3716/75C  NPN     (
+         IS = 2.488167E-12
+         BF = 251.3989428
+         NF = 0.9821339
+        VAF = 156.2455357
+        IKF = 7.4369669
+        ISE = 9.126677E-13
+         NE = 1.1825944
+         BR = 6.6980683
+         NR = 0.9495461
+        VAR = 73.8029974
+        IKR = 9.8
+        ISC = 8.45948E-10
+         NC = 1.4697636
+         RB = 24.9978874
+        IRB = 0.0132
+        RBM = 0.0208
+         RE = 2.731568E-3
+         RC = 0.19
+        CJE = 8.257673E-10
+        VJE = 0.6267016
+        MJE = 0.3837888
+         TF = 2.414E-8
+        XTF = 1.5
+        VTF = 1
+        ITF = 0.6
+        PTF = 10.8064163
+        CJC = 4.124871E-10
+        VJC = 0.427344
+        MJC = 0.40638
+       XCJC = 1
+         TR = 1.583954E-07
+        CJS = 0
+        VJS = .75
+        MJS = 0
+        XTB = 0.5510242
+         EG = 1.11
+        XTI = 4.5775956
+         KF = 0
+         AF = 1
+         FC = 0.8447749
+ )
*$
*.model Q2N4063	ako:NSC_36	NPN()	; case TO-37 (s)
.MODEL Q2N4063	   NPN(Is=321.7f Xti=3 Eg=1.11 Vaf=100 Bf=278.8 Ise=321.7f
+   Ne=1.254 Ikf=.4679 Nk=.7734 Xtb=1.5 Br=1 Isc=27.84n Nc=2.374
+   Ikr=20.67 Rc=1.873 Cjc=22.69p Mjc=.2467 Vjc=.75 Fc=.5
+   Cje=164.2p Mje=.3815 Vje=.75 Tr=6.223u Tf=2.066n Itf=50.26
+   Xtf=284.8K Vtf=2 Rb=.1)
*$
*.model Q2N4064	ako:NSC_36	NPN()	; case TO-37 (s)
.MODEL Q2N4064	   NPN(Is=321.7f Xti=3 Eg=1.11 Vaf=100 Bf=278.8 Ise=321.7f
+   Ne=1.254 Ikf=.4679 Nk=.7734 Xtb=1.5 Br=1 Isc=27.84n Nc=2.374
+   Ikr=20.67 Rc=1.873 Cjc=22.69p Mjc=.2467 Vjc=.75 Fc=.5
+   Cje=164.2p Mje=.3815 Vje=.75 Tr=6.223u Tf=2.066n Itf=50.26
+   Xtf=284.8K Vtf=2 Rb=.1)
*$
*.model Q2N4918	ako:NSC_5F	PNP()	; case TO-126