* Library of Power MOSFET models

*  Copyright OrCAD, Inc. 1998 All Rights Reserved.

* $Revision:   1.24  $
* $Author:   rperez  $
* $Date:   19 Oct 1998 10:22:26  $
*----------------------------------------------------------------------------
* OrCAD Incorporated would like to acknowledge Sandia National Laboratories
* for the contribution of their measurement-based models included in this
* library.
*----------------------------------------------------------------------------
* The parameters in this model library were derived from the data sheets for
* each part.  Each part was characterized using the Parts option.
*-----------------------------------------------------------------------------
*
* NOTE:	when specifying the instance of a device in your circuit file:
*
*	BE SURE to have the source and bulk nodes connected together, as this
*	is the way the real device is constructed.
*
*	DO NOT include values for L, W, AD, AS, PD, PS, NRD, or NDS.
*	The PSpice default values for these parameters are taken into account
*	in the library model statements.  Of course, you should NOT reset
*	the default values using the .OPTIONS statement, either.
*
* Example use:	M17	15 23 7 7	IFR150
*
*-----------------------------------------------------------------------------
*
* The "power" MOSFET device models benefit from relatively complete specifi-
* cation of static and dynamic characteristics by their manufacturers.  The
* following effects are modeled:
*	- DC transfer curves in forward operation,
*	- gate drive characteristics and switching delay,
*	- "on" resistance,
*	- reverse-mode "body-diode" operation.
*
* The factors not modeled include:
*	- maximum ratings (eg. high-voltage breakdown),
*	- safe operating area (eg. power dissipation),
*	- latch-up,
*	- noise.
*
*-----------------------------------------------------------------------------
*
* For high-current switching applications, we advise that you include
* series inductance elements, for the source and drain, in your circuit file.
* In doing so, voltage spikes due to di/dt will be modeled.  According to the
* 1985 International Rectifier databook, the following case styles have lead
* inductance values of:
*	TO-204 (modified TO-3)	source = 12.5nH		drain = 5.0nH
*	TO-220			source =  7.5nH		drain = 3.5-4.5nH
*
*-----------------------------------------------------------------------------
*$
.model BSS129   NMOS(Level=3 Gamma=0 Delta=0 Eta=0 Theta=0 Kappa=0.2 Vmax=0 Xj=0
+               Tox=2u Uo=600 Phi=.6 Kp=1.023u W=.18 L=2u Rs=0 Vto=-1.236
+               Rd=10E-21 Rds=3.429K Cgso=4p Cgdo=1p Cbd=134.4p Mj=.4522
+               Pb=.3905 Fc=.5 Rg=0 Is=3.348p N=1.161 Rb=2.414)
*$
.model BSS139   NMOS(Level=3 Gamma=0 Delta=0 Eta=0 Theta=0 Kappa=0.2 Vmax=0 Xj=0
+               Tox=2u Uo=600 Phi=.6 Kp=1.076u W=.12 L=2u Rs=1 Vto=-1.66 Rd=80
+               Rds=2.273K Cgso=4p Cgdo=1p Cbd=14.47p Mj=.3502 Pb=2.061 Fc=.5
+               Rg=0 Is=10f N=1 Rb=1m)
*$
.model BSS149   NMOS(Level=3 Gamma=0 Delta=0 Eta=0 Theta=0 Kappa=0.2 Vmax=0 Xj=0
+               Tox=2u Uo=600 Phi=.6 Kp=1.036u W=.92 L=2u Rs=20m Vto=-1.056
+               Rd=.5 Rds=714.3 Cgso=4p Cgdo=1p Cbd=42.39p Mj=.6344 Pb=.3905
+               Fc=.5 Rg=0 Is=1f N=1 Rb=1m)
*$
.model BSS229   NMOS(Level=3 Gamma=0 Delta=0 Eta=0 Theta=0 Kappa=0.2 Vmax=0 Xj=0
+               Tox=2u Uo=600 Phi=.6 Kp=1.076u W=.12 L=2u Rs=20m Vto=-1.66
+               Rd=77.03 Rds=2.5K Cgso=4p Cgdo=1p Cbd=14.47p Mj=.3502 Pb=2.061
+               Fc=.5 Rg=0 Is=10f N=1 Rb=1m)
*$
.model M2N6659  NMOS(Level=3 Gamma=0 Delta=0 Eta=0 Theta=0 Kappa=0.2 Vmax=0 Xj=0
+               Tox=2u Uo=600 Phi=.6 Kp=1.047u W=.32 L=2u Rs=20m Vto=1.8
+               Rd=.4672 Rds=3.5MEG Cgso=1.885p Cgdo=7.564p Cbd=118p Mj=.5
+               Pb=.8 Fc=.5 Rg=209.5 Is=10f N=1 Rb=1m)
*$
.model M2N6660  NMOS(Level=3 Gamma=0 Delta=0 Eta=0 Theta=0 Kappa=0.2 Vmax=0 Xj=0
+               Tox=2u Uo=600 Phi=.6 Kp=1.047u W=.32 L=2u Rs=20m Vto=1.8
+               Rd=.4672 Rds=6MEG Cgso=1.885p Cgdo=7.564p Cbd=118p Mj=.5 Pb=.8
+               Fc=.5 Rg=209.5 Is=10f N=1 Rb=1m)
*$
.model M2N6661  NMOS(Level=3 Gamma=0 Delta=0 Eta=0 Theta=0 Kappa=0.2 Vmax=0 Xj=0
+               Tox=2u Uo=600 Phi=.6 Kp=1.05u W=.18 L=2u Rs=20m Vto=2 Rd=0
+               Rds=9MEG Cgso=15.45p Cgdo=8.947p Cbd=108.7p Mj=.5 Pb=.8 Fc=.5
+               Rg=209.5 Is=10f N=1 Rb=1m)
*$
.model M2N6755	NMOS(Level=3 Gamma=0 Delta=0 Eta=0 Theta=0 Kappa=0.2 Vmax=0 Xj=0
+		Tox=100n Uo=600 Phi=.6 Rs=.1207 Kp=21.35u W=1.1 L=2u Vto=3.143
+		Rd=64.68m Rds=600K Cbd=1.273n Pb=.8 Mj=.5 Fc=.5 Cgso=729.7p
+		Cgdo=310.4p Rg=5.839 Is=44.21f N=1 Tt=370n)
*		Int'l Rectifier	pid=IRFC130	case=TO3
*		88-08-26 bam	creation
*$
.model M2N6756	NMOS(Level=3 Gamma=0 Delta=0 Eta=0 Theta=0 Kappa=0.2 Vmax=0 Xj=0
+		Tox=100n Uo=600 Phi=.6 Rs=.1207 Kp=21.35u W=1.1 L=2u Vto=3.143
+		Rd=4.68m Rds=1MEG Cbd=1.273n Pb=.8 Mj=.5 Fc=.5 Cgso=679.6p
+		Cgdo=197.4p Rg=9.781 Is=4.345f N=1 Tt=348n)
*		Int'l Rectifier	pid=IRFC130	case=TO3
*		88-08-29 bam	creation
*$
.model M2N6757	NMOS(Level=3 Gamma=0 Delta=0 Eta=0 Theta=0 Kappa=0.2 Vmax=0 Xj=0
+		Tox=100n Uo=600 Phi=.6 Rs=.1145 Kp=19.85u W=1.1 L=2u Vto=3.391
+		Rd=.2702 Rds=1.5MEG Cbd=1.068n Pb=.8 Mj=.5 Fc=.5 Cgso=2.819n
+		Cgdo=117p Rg=2.941 Is=270.5p N=1 Tt=1150n)
*		Int'l Rectifier	pid=IRFC230	case=TO3
*		88-08-26 bam	creation
*$
.model M2N6758	NMOS(Level=3 Gamma=0 Delta=0 Eta=0 Theta=0 Kappa=0.2 Vmax=0 Xj=0
+		Tox=100n Uo=600 Phi=.6 Rs=.1145 Kp=19.85u W=1.1 L=2u Vto=3.391
+		Rd=.1199 Rds=2MEG Cbd=1.068n Pb=.8 Mj=.5 Fc=.5 Cgso=2.32n
+		Cgdo=68.35p Rg=6.086 Is=809.2f N=1 Tt=985n)
*		Int'l Rectifier	pid=IRFC230	case=TO3
*		88-08-29 bam	creation
*$
.model M2N6759	NMOS(Level=3 Gamma=0 Delta=0 Eta=0 Theta=0 Kappa=0.2 Vmax=0 Xj=0
+		Tox=100n Uo=600 Phi=.6 Rs=.1118 Kp=20.77u W=.92 L=2u Vto=3.179
+		Rd=.872 Rds=3.5MEG Cbd=611.5p Pb=.8 Mj=.5 Fc=.5 Cgso=1.595n
+		Cgdo=219.6p Rg=.8404 Is=1.361n N=1 Tt=1400n)
*		Int'l Rectifier	pid=IRFC330	case=TO3
*		88-08-26 bam	creation
*$
.model M2N6760	NMOS(Level=3 Gamma=0 Delta=0 Eta=0 Theta=0 Kappa=0.2 Vmax=0 Xj=0
+		Tox=100n Uo=600 Phi=.6 Rs=.1118 Kp=20.77u W=.92 L=2u Vto=3.179
+		Rd=.6718 Rds=4MEG Cbd=611.5p Pb=.8 Mj=.5 Fc=.5 Cgso=1.623n
+		Cgdo=191.7p Rg=1.314 Is=4.097p N=1 Tt=1285n)
*		Int'l Rectifier	pid=IRFC330	case=TO3
*		88-08-29 bam	creation
*$
.model M2N6761	NMOS(Level=3 Gamma=0 Delta=0 Eta=0 Theta=0 Kappa=0.2 Vmax=0 Xj=0
+		Tox=100n Uo=600 Phi=.6 Rs=98.25m Kp=20.62u W=.38 L=2u Vto=3.166
+		Rd=1.363 Rds=3.6MEG Cbd=791.9p Pb=.8 Mj=.5 Fc=.5 Cgso=1.709n
+		Cgdo=152.1p Rg=2.119 Is=12.62p N=1 Tt=1425n)
*		Int'l Rectifier	pid=IRFC430	case=TO3
*		88-08-26 bam	creation
*$
.model M2N6762	NMOS(Level=3 Gamma=0 Delta=0 Eta=0 Theta=0 Kappa=0.2 Vmax=0 Xj=0
+		Tox=100n Uo=600 Phi=.6 Rs=98.25m Kp=20.62u W=.38 L=2u Vto=3.166
+		Rd=1.162 Rds=4MEG Cbd=791.9p Pb=.8 Mj=.5 Fc=.5 Cgso=1.725n
+		Cgdo=136.7p Rg=2.685 Is=2.68p N=1 Tt=1245n)
*		Int'l Rectifier	pid=IRFC430	case=TO3
*		88-08-29 bam	creation
*$
.model M2N6763	NMOS(Level=3 Gamma=0 Delta=0 Eta=0 Theta=0 Kappa=0.2 Vmax=0 Xj=0
+		Tox=100n Uo=600 Phi=.6 Rs=21.3m Kp=20.52u W=.51 L=2u Vto=3.061
+		Rd=7.905m Rds=600K Cbd=3.654n Pb=.8 Mj=.5 Fc=.5 Cgso=8.543n
+		Cgdo=2.163n Rg=7.955 Is=50.08f N=1 Tt=510n)
*		Int'l Rectifier	pid=IRFC150	case=TO3
*		88-08-26 bam	creation
*$
.model M2N6764	NMOS(Level=3 Gamma=0 Delta=0 Eta=0 Theta=0 Kappa=0.2 Vmax=0 Xj=0
+		Tox=100n Uo=600 Phi=.6 Rs=21.3m Kp=20.52u W=.51 L=2u Vto=3.061
+		Rd=3.109m Rds=1MEG Cbd=3.654n Pb=.8 Mj=.5 Fc=.5 Cgso=9.027n
+		Cgdo=1.679n Rg=8.93 Is=41.6f N=1 Tt=495n)
*		Int'l Rectifier	pid=IRFC150	case=TO3
*		88-08-29 bam	creation
*$
.model M2N6765	NMOS(Level=3 Gamma=0 Delta=0 Eta=0 Theta=0 Kappa=0.2 Vmax=0 Xj=0
+		Tox=100n Uo=600 Phi=.6 Rs=48.24m Kp=20.74u W=1.8 L=2u Vto=3.064
+		Rd=32.96m Rds=1.5MEG Cbd=3.662n Pb=.8 Mj=.5 Fc=.5 Cgso=1.429n
+		Cgdo=597.5p Rg=1.545 Is=6.304p N=1 Tt=542n)
*		Int'l Rectifier	pid=IRFC250	case=TO3
*		88-08-26 bam	creation
*$
.model M2N6766	NMOS(Level=3 Gamma=0 Delta=0 Eta=0 Theta=0 Kappa=0.2 Vmax=0 Xj=0
+		Tox=100n Uo=600 Phi=.6 Rs=48.24m Kp=20.74u W=1.8 L=2u Vto=3.064
+		Rd=12.73m Rds=2MEG Cbd=3.662n Pb=.8 Mj=.5 Fc=.5 Cgso=1.461n
+		Cgdo=401.8p Rg=1.545 Is=2.883p N=1 Tt=510n)
*		Int'l Rectifier	pid=IRFC250	case=TO3
*		88-08-26 bam	creation
*$
.model M2N6767	NMOS(Level=3 Gamma=0 Delta=0 Eta=0 Theta=0 Kappa=0.2 Vmax=0 Xj=0
+		Tox=100n Uo=600 Phi=.6 Rs=13.98m Kp=20.77u W=.82 L=2u Vto=2.885
+		Rd=.2691 Rds=3.5MEG Cbd=3.018n Pb=.8 Mj=.5 Fc=.5 Cgso=9.503n
+		Cgdo=204.5p Rg=3.164 Is=902.5p N=1 Tt=865n)
*		Int'l Rectifier	pid=IRFC350	case=TO3
*		88-08-26 bam	creation
*$
.model M2N6768	NMOS(Level=3 Gamma=0 Delta=0 Eta=0 Theta=0 Kappa=0.2 Vmax=0 Xj=0
+		Tox=100n Uo=600 Phi=.6 Rs=13.98m Kp=20.77u W=.82 L=2u Vto=2.885
+		Rd=.219 Rds=4MEG Cbd=3.018n Pb=.8 Mj=.5 Fc=.5 Cgso=9.529n
+		Cgdo=178.5p Rg=3.581 Is=146.3p N=1 Tt=1490n)
*		Int'l Rectifier	pid=IRFC350	case=TO3
*		88-08-29 bam	creation
*$
.model M2N6769	NMOS(Level=3 Gamma=0 Delta=0 Eta=0 Theta=0 Kappa=0.2 Vmax=0 Xj=0
+		Tox=100n Uo=600 Phi=.6 Rs=28.45m Kp=20.65u W=2 L=2u Vto=3.31
+		Rd=.3639 Rds=3.6MEG Cbd=2.941n Pb=.8 Mj=.5 Fc=.5 Cgso=1.812n
+		Cgdo=192.2p Rg=1.145 Is=1.354n N=1 Tt=275n)
*		Int'l Rectifier	pid=IRFC450	case=TO3
*		88-08-26 bam	creation
*$
.model M2N6770	NMOS(Level=3 Gamma=0 Delta=0 Eta=0 Theta=0 Kappa=0.2 Vmax=0 Xj=0
+		Tox=100n Uo=600 Phi=.6 Rs=28.45m Kp=20.65u W=2 L=2u Vto=3.31
+		Rd=.264 Rds=4MEG Cbd=2.941n Pb=.8 Mj=.5 Fc=.5 Cgso=1.832n
+		Cgdo=172.7p Rg=1.385 Is=289.1p N=1 Tt=580n)
*		Int'l Rectifier	pid=IRFC450	case=TO3
*		88-08-29 bam	creation
*$
.model M2N6782	NMOS(Level=3 Gamma=0 Delta=0 Eta=0 Theta=0 Kappa=0.2 Vmax=0 Xj=0
+		Tox=100n Uo=600 Phi=.6 Rs=.374 Kp=20.85u W=.28 L=2u Vto=3.201
+		Rd=67.85m Rds=444.4K Cbd=371.1p Pb=.8 Mj=.5 Fc=.5 Cgso=600.5p
+		Cgdo=62.71p Rg=36.61 Is=229.1f N=1 Tt=370n)
*		Int'l Rectifier	pid=IRFC110	case=TO39
*		88-08-26 bam	creation
*$
.model M2N6784	NMOS(Level=3 Gamma=0 Delta=0 Eta=0 Theta=0 Kappa=0.2 Vmax=0 Xj=0
+		Tox=100n Uo=600 Phi=.6 Rs=.3735 Kp=20.86u W=.23 L=2u Vto=3.274
+		Rd=.5583 Rds=888.9K Cbd=304.5p Pb=.8 Mj=.5 Fc=.5 Cgso=517.7p
+		Cgdo=61.68p Rg=26.49 Is=478.4f N=1 Tt=1070n)
*		Int'l Rectifier	pid=IRFC210	case=TO39
*		88-08-26 bam	creation
*$
.model M2N6786	NMOS(Level=3 Gamma=0 Delta=0 Eta=0 Theta=0 Kappa=0.2 Vmax=0 Xj=0
+		Tox=100n Uo=600 Phi=.6 Rs=.3444 Kp=21.11u W=.21 L=2u Vto=3.906
+		Rd=2.878 Rds=1.778MEG Cbd=215.7p Pb=.8 Mj=.5 Fc=.5 Cgso=1.179n
+		Cgdo=103.2p Rg=10.06 Is=1.034n N=1 Tt=2300n)
*		Int'l Rectifier	pid=IRFC310	case=TO39
*		88-08-26 bam	creation
*$
.model M2N6788	NMOS(Level=3 Gamma=0 Delta=0 Eta=0 Theta=0 Kappa=0.2 Vmax=0 Xj=0
+		Tox=100n Uo=600 Phi=.6 Rs=.1555 Kp=20.84u W=.38 L=2u Vto=3.011
+		Rd=54.91m Rds=444.4K Cbd=722.7p Pb=.8 Mj=.5 Fc=.5 Cgso=542p
+		Cgdo=142.9p Rg=63.13 Is=6.454f N=1 Tt=315n)
*		Int'l Rectifier	pid=IRFC120	case=TO39
*		88-08-26 bam	creation
*$
.model M2N6790	NMOS(Level=3 Gamma=0 Delta=0 Eta=0 Theta=0 Kappa=0.2 Vmax=0 Xj=0
+		Tox=100n Uo=600 Phi=.6 Rs=94.5m Kp=20.41u W=.2 L=2u Vto=3.016
+		Rd=.3323 Rds=888.9K Cbd=612.1p Pb=.8 Mj=.5 Fc=.5 Cgso=4.029n
+		Cgdo=168.6p Rg=20.53 Is=62.44p N=1 Tt=810n)
*		Int'l Rectifier	pid=IRFC220	case=TO39
*		88-08-26 bam	creation
*$
.model M2N6792	NMOS(Level=3 Gamma=0 Delta=0 Eta=0 Theta=0 Kappa=0.2 Vmax=0 Xj=0
+		Tox=100n Uo=600 Phi=.6 Rs=.1219 Kp=20.9u W=.23 L=2u Vto=3.025
+		Rd=1.317 Rds=1.778MEG Cbd=432.8p Pb=.8 Mj=.5 Fc=.5 Cgso=1.705n
+		Cgdo=149.2p Rg=1.136 Is=590.5f N=1 Tt=1720n)
*		Int'l Rectifier	pid=IRFC320	case=TO39
*		88-08-26 bam	creation
*$
.model M2N6794	NMOS(Level=3 Gamma=0 Delta=0 Eta=0 Theta=0 Kappa=0.2 Vmax=0 Xj=0
+		Tox=100n Uo=600 Phi=.6 Rs=.1373 Kp=20.5u W=.2 L=2u Vto=3.32
+		Rd=2.288 Rds=2.222MEG Cbd=464.2p Pb=.8 Mj=.5 Fc=.5 Cgso=1.589n
+		Cgdo=105.2p Rg=2.722 Is=24.14p N=1 Tt=2550n)
*		Int'l Rectifier	pid=IRFC420	case=TO39
*		88-08-29 bam	creation
*$
.model M2N6796	NMOS(Level=3 Gamma=0 Delta=0 Eta=0 Theta=0 Kappa=0.2 Vmax=0 Xj=0
+		Tox=100n Uo=600 Phi=.6 Rs=.1049 Kp=20.65u W=.92 L=2u Vto=3.141
+		Rd=18.36m Rds=444.4K Cbd=1.217n Pb=.8 Mj=.5 Fc=.5 Cgso=679.6p
+		Cgdo=197.4p Rg=6.383 Is=3.403f N=1 Tt=308n)
*		Int'l Rectifier	pid=IRFC130	case=TO39
*		88-08-26 bam	creation
*$
.model M2N6798	NMOS(Level=3 Gamma=0 Delta=0 Eta=0 Theta=0 Kappa=0.2 Vmax=0 Xj=0
+		Tox=100n Uo=600 Phi=.6 Rs=.1152 Kp=20.02u W=1.1 L=2u Vto=3.054
+		Rd=.1208 Rds=888.9K Cbd=928.2p Pb=.8 Mj=.5 Fc=.5 Cgso=2.32n
+		Cgdo=68.35p Rg=1.072 Is=263.4f N=1 Tt=710n)
*		Int'l Rectifier	pid=IRFC230	case=TO39
*		88-08-26 bam	creation
*$
.model M2N6800	NMOS(Level=3 Gamma=0 Delta=0 Eta=0 Theta=0 Kappa=0.2 Vmax=0 Xj=0
+		Tox=100n Uo=600 Phi=.6 Rs=80.1m Kp=20.62u W=.56 L=2u Vto=3.206
+		Rd=.6937 Rds=1.778MEG Cbd=823.8p Pb=.8 Mj=.5 Fc=.5 Cgso=1.623n
+		Cgdo=191.7p Rg=.7082 Is=1.334n N=1 Tt=1530n)
*		Int'l Rectifier	pid=IRFC330	case=TO39
*		88-08-29 bam	creation
*$
.model M2N6802	NMOS(Level=3 Gamma=0 Delta=0 Eta=0 Theta=0 Kappa=0.2 Vmax=0 Xj=0
+		Tox=100n Uo=600 Phi=.6 Rs=.1084 Kp=20.88u W=.49 L=2u Vto=3.101
+		Rd=1.163 Rds=2.222MEG Cbd=732p Pb=.8 Mj=.5 Fc=.5 Cgso=1.725n
+		Cgdo=136.7p Rg=.824 Is=1.823p N=1 Tt=2060n)
*		Int'l Rectifier	pid=IRFC430	case=TO39
*		88-08-29 bam	creation
*$
.model M2N6804	PMOS(Level=3 Gamma=0 Delta=0 Eta=0 Theta=0 Kappa=0.2 Vmax=0 Xj=0
+		Tox=100n Uo=300 Phi=.6 Rs=.153 Kp=10.46u W=1.2 L=2u Vto=-3.68
+		Rd=66.52m Rds=444.4MEG Cbd=1.281n Pb=.8 Mj=.5 Fc=.5 Cgso=1.798n
+		Cgdo=134.9p Rg=4.931 Is=5.477p N=3 Tt=295n)
*		Int'l Rectifier	pid=IRFC9130	case=TO3
*		88-08-29 bam	creation
*$
.model M2N6806	PMOS(Level=3 Gamma=0 Delta=0 Eta=0 Theta=0 Kappa=0.2 Vmax=0 Xj=0
+		Tox=100n Uo=300 Phi=.6 Rs=.1722 Kp=10.45u W=2 L=2u Vto=-3.345
+		Rd=.5117 Rds=888.9MEG Cbd=783.8p Pb=.8 Mj=.5 Fc=.5 Cgso=1.984n
+		Cgdo=41.82p Rg=1.03 Is=759.7f N=4 Tt=555n)
*		Int'l Rectifier	pid=IRFC9230	case=TO3
*		88-08-26 bam	creation
*$
.model M2N6845	PMOS(Level=3 Gamma=0 Delta=0 Eta=0 Theta=0 Kappa=0.2 Vmax=0 Xj=0
+		Tox=100n Uo=300 Phi=.6 Rs=.284 Kp=10.43u W=.68 L=2u Vto=-3.533
+		Rd=.1672 Rds=444.4MEG Cbd=899.2p Pb=.8 Mj=.5 Fc=.5 Cgso=2.288n
+		Cgdo=138.5p Rg=7.701 Is=793.1f N=3 Tt=425n)
*		Int'l Rectifier	pid=IRFC9120	case=TO39
*		88-08-26 bam	creation
*$
.model M2N6847	PMOS(Level=3 Gamma=0 Delta=0 Eta=0 Theta=0 Kappa=0.2 Vmax=0 Xj=0
+		Tox=100n Uo=300 Phi=.6 Rs=.286 Kp=10.37u W=.97 L=2u Vto=-3.661
+		Rd=.9789 Rds=888.9MEG Cbd=440.2p Pb=.8 Mj=.5 Fc=.5 Cgso=1.897n
+		Cgdo=46.53p Rg=1.002 Is=279.9f N=4 Tt=900n)
*		Int'l Rectifier	pid=IRFC9220	case=TO39
*		88-08-29 bam	creation
*$
.model M2N6849	PMOS(Level=3 Gamma=0 Delta=0 Eta=0 Theta=0 Kappa=0.2 Vmax=0 Xj=0
+		Tox=100n Uo=300 Phi=.6 Rs=.1592 Kp=10.08u W=1.5 L=2u Vto=-3.64
+		Rd=67.42m Rds=444.4MEG Cbd=1.249n Pb=.8 Mj=.5 Fc=.5 Cgso=1.513n
+		Cgdo=107.6p Rg=6.235 Is=3.275p N=3 Tt=417n)
*		Int'l Rectifier	pid=IRFC9130	case=TO39
*		88-08-29 bam	creation
*$
.model M2N6851	PMOS(Level=3 Gamma=0 Delta=0 Eta=0 Theta=0 Kappa=0.2 Vmax=0 Xj=0
+		Tox=100n Uo=300 Phi=.6 Rs=.1181 Kp=10.32u W=.93 L=2u Vto=-3.252
+		Rd=.5495 Rds=888.9MEG Cbd=891.4p Pb=.8 Mj=.5 Fc=.5 Cgso=3.804n
+		Cgdo=90.23p Rg=.9239 Is=2.072p N=4 Tt=815n)
*		Int'l Rectifier	pid=IRFC9230	case=TO39
*		88-08-26 bam	creation
*$
.model M2n7000  NMOS(Level=3 Gamma=0 Delta=0 Eta=0 Theta=0 Kappa=0.2 Vmax=0 Xj=0
+               Tox=2u Uo=600 Phi=.6 Kp=1.073u W=.12 L=2u Rs=20m Vto=1.73
+               Rd=.5489 Rds=48MEG Cgso=73.61p Cgdo=6.487p Cbd=74.46p Mj=.5
+               Pb=.8 Fc=.5 Rg=546.2 Is=10f N=1 Rb=1m)
*$
*---------------------------------------------------------------------------
* NOT SPICE 2G.6 Compatible.  FOR USE WITH MICROSIM PSPICE.
*
* MANUFACTURERS PART # = FR_230H3  
* TYPE: TRANSISTOR  
* SUBTYPE: MOSFET  
* THE FOLLOWING FILE CONTAINS PRE-RAD TEMPERATURE DEPENDENT MODEL FOR 
* THE SA3810-1.  
*  
* PARAMETER MODELS EXTRACTED FROM MEASURED DATA  
* CREATION DATES: 01-31-95  
*  
* THIS MODEL CAN BE USED WITH THE .TEMP CARD OVER THE TEMPERATURE RANGE 
* OF -55 C TO 125 C.  
*  
*
********************************************************************************************  
*  THIS MODEL LENDS ITSELF TO MONTE CARLO ANALYSIS BY MAINTAINING 
*   PHYSICALITY IN THE FOLLOWING AREAS:
*             DRAIN RESISTANCE (PROVIDING THE MAJORITY OF RDSON, USE RD1 AND RD2) 
*             GATE THRESHOLD VOLTAGE   (USE VTO IN .MODEL M1 )                             
*             GATE DRAIN CAPACITANCE   (USE CJO IN .MODEL DGD AND CGDMAX )                 
*             DRAIN SOURCE CAPACITANCE (USE CJO IN .MODEL DDS )
********************************************************************************************  
* An indication of switching time accuracy, using VDD=50V, and RL=23.2 ohms,
* is contained in the following table:
*
* T-ON      MEASURED     SIMULATED        T-OFF      MEASURED      SIMULATED
* +27C      73.24NSEC    81.528NSEC       +27C       140.4NSEC     149.64NSEC
*
.SUBCKT FR_230H3  	10 	20	30  
*                 	|  	|  	|  
*                 	|  	|  	SOURCE  
*                 	|  	GATE  
*                	DRAIN  
********************************************************************************************  
*
*------------------------------ EXTERNAL PARASITICS OF DEVICE -----------------------------*  
RD1     2    4     0.1271         TC = .00828986, 1.86415E-5
RD2     4    5     0.1271         TC = .00828986, 1.86415E-5 
RS      3    9     0.009          TC = -.0108905, 1.8548E-5 
RG      1    8     4.50  
LD      5   10     5E-9  
LG      8   20     15E-9  
LS      9   30     15E-9  
******************************************NOTE**********************************************  
* THE INDUCTANCE VALUES GIVEN ABOVE ARE MEASURED AT 5MM FROM THE COIN 
* HEADER. FOR USE WITH GREATER LEAD LENTGHS ADD 305PH PER MM OF 
* ADDITIONAL LENGTH PER LEAD. FOR USE WITH LESSER LEAD LENGTHS SUBTRACT 
* 305PH PER MM OF DECREASED LEAD LENGTH PER LEAD.
********************************************************************************************  
*---------------------------- END EXTERNAL PARASITICS OF DEVICE ---------------------------*  
********************************************************************************************  
********************************************************************************************  
*--------------------- DRAIN SOURCE CAPACITANCE AND BREAKDOWN CIRCUIT ------*  
DDS	 9	11	DDS1  
RDIO    11 	5 	0.0446 TC = .00273648,  5.69498E-06
*-------------------- END DRAIN SOURCE CAPACITANCE AND BREAKDOWN CIRCUIT --*  
********************************************************************************************  
********************************************************************************************  
*---------------------------- DRAIN GATE CAPACITANCE SIMULATOR ----------------------------*  
*-------------------- FIRST SECTION FOR NON-LINEAR CGD INCLUDES FOLLOWING------*  
********************************************************************************************  
* VOLTAGE CONTROLLED SWITCHES CAN BE USED IN PLACE OF M2 AND M3 IN THE
* EVENT THE SIMULATOR SUPPORTS VOLTAGE CONTROLLED SWITCHES.  USE OF 
* VOLTAGE CONTROLLED SWITCHES WILL REDUCE EXECUTION TIME FOR THIS MODEL                                   ********************************************************************************************  
DGD 	6 	4 	DGD  
RDGD 	4	6 	1E7  
M2 	6	 4 	1 	100 	MSW1  
RSUB1 1 	100 	1E12  
*----------------------------- LAST SECTION FOR CONSTANT CGD  -----------------------------*  
CGDMAX  4	 7 	1.81E-09  
RCGD 	4 	 7 	1E7  
M3 	7 	 4 	1 	101	 MSW2  
RSUB2   1 	101 	1E12  
*---------------------------- END GATE CAPACITANCE SIMULATOR ------------------------------*  
********************************************************************************************  
********************************************************************************************  
*--------------------------- LEVEL 3 MOS MODEL CORE OF SUBCKT -----------------------------*  
M1 	2 	1 	3	 9	 MAIN W=2.60  L=1E-6  
*------------------------------ END LEVEL THREE MOS MODEL ---------------------------------*  
********************************************************************************************  
*------------------------------ PARAMETER SETS FOR MODELS ---------------------------------*  
.MODEL MSW1 NMOS (
+      LEVEL = 1
+        VTO = 0
+         KP = 10
+ )
.MODEL MSW2 PMOS (
+      LEVEL = 1
+        VTO = 0
+         KP = 10
+ )
.MODEL MAIN NMOS (
+      LEVEL = 3
+        VTO = 4.138
+        PHI = 0.5
+         IS = 1E-12
+        TOX = 1.0E-7
+       NSUB = 2.848E16
+        NFS = 1.272E12
+         UO = 57.575
+      THETA = 0
+        ETA = 0
+      KAPPA = 1E-3
+ )
.MODEL DDS1 D (
+         IS = 5.565E-12
+          N = 1.1102
+         TT = 8E-6
+        CJO = 7.98E-10
+         VJ = 0.928
+          M = 0.518
+         EG = 1.11
+        XTI = 6.5
+         FC = 0.500
+         BV = 200
+        IBV = 2.5E-4
+ )
.MODEL DGD D (
+        CJO = 1.81E-09
+         VJ = 0.674
+          M = 0.899
+         FC = 0.5
+         BV = 150.0
+        IBV = 1E-3
+ )
.ENDS  FR_230H3
*
*$
* SPICE 2G.6 Compatible. 
*
* MANUFACTURERS PART # = FRL130  
* TYPE: TRANSISTOR  
* SUBTYPE: MOSFET  
* THE FOLLOWING FILE CONTAINS 1 PRE-RAD TEMPERATURE DEPENDENT MODEL
* FOR THE SA3711.  
*  
* PARAMETER MODELS EXTRACTED FROM MEASURED DATA  
* CREATION DATES: 01-30-95
*  
* THIS MODEL CAN BE USED WITH THE .TEMP CARD OVER THE TEMPERATURE RANGE
* OF  -55 C TO 125 C. 
*
*  TOFF SIMULATED IS 14%  SLOWER THAN MEASURED.  AT -55C THE SIMULATED 
*  CURRENT OF 2.0 AMPS IS 17% LARGER THAN THE MEASURED 1.7AMPS. ALL OTHER 
*  CURRENT CURVES ARE WITHIN 5-6%
* 
*                                                                                         ********************************************************************************************  
*  THIS MODEL LENDS ITSELF TO MONTE CARLO ANALYSIS BY MAINTAINING 
*  PHYSICALITY IN THE  FOLLOWING AREAS:  
*             DRAIN RESISTANCE (PROVIDING THE MAJORITY OF RDSON, USE RD1 AND
*	  RD2)
*             GATE THRESHOLD VOLTAGE   (USE VTO IN .MODEL M1 ) 
*             GATE DRAIN CAPACITANCE   (USE CJO IN .MODEL DGD AND CGDMAX )                 
*             DRAIN SOURCE CAPACITANCE (USE CJO IN .MODEL DDS )  
********************************************************************************************  
.SUBCKT FRL130  	10 	 20 	 30  
*               	| 	 |	  |  
*                	|  	 | 	 SOURCE  
*               	| 	 GATE  
*                	DRAIN  
********************************************************************************************  
*                                                                                      
*------------------------------ EXTERNAL PARASITICS OF DEVICE -----------------------------
*  
RD1     2       4       .0347 	 TC = .0101724, 2.21963E-05
RD2     4       5       .0347 	 TC = .0101724, 2.21963E-05 
RS	3	9	.0313	TC = -.0022297, -8.18557E-6
RG      1       8       9.50  
LD      5       10      5E-9  
LG      8       20      15E-9  
LS      9       30      15E-9  
******************************************NOTE**********************************************  
* THE INDUCTANCE VALUES GIVEN ABOVE ARE MEASURED AT 5MM FROM THE COIN
* HEADER. FOR USE WITH GREATER LEAD LENTGHS ADD 305PH PER MM OF
* ADDITIONAL LENGTH PER LEAD.  FOR USE WITH LESSER
* LEAD LENGTHS SUBTRACT 305PH PER MM OF DECREASED LEAD LENGTH PER LEAD.                    
********************************************************************************************  
*---------------------------- END EXTERNAL PARASITICS OF DEVICE ---------------------------                                                                                     ********************************************************************************************  
********************************************************************************************                                                                                       
*--------------------- DRAIN SOURCE CAPACITANCE AND BREAKDOWN CIRCUIT -------------
*  
DDS     9       11      DDS1  
RDIO    11      5       46.3m  TC= .00269473, 5.93891E-06
*-------------------- END DRAIN SOURCE CAPACITANCE AND BREAKDOWN CIRCUIT --------                                                                                       ********************************************************************************************  
********************************************************************************************  
*---------------------------- DRAIN GATE CAPACITANCE SIMULATOR ----------------------------*  
*-------------------- FIRST SECTION FOR NON-LINEAR CGD INCLUDES FOLLOWING ---------*  
********************************************************************************************  
*     VOLTAGE CONTROLLED SWITCHES CAN BE USED IN PLACE OF M2 AND M3 IN THE 
*     EVENT THE SIMULATOR SUPPORTS VOLTAGE CONTROLLED SWITCHES.  USE OF 
*     VOLTAGE CONTROLLED SWITCHES WILL REDUCE EXECUTION TIME FOR THIS 
*     MODEL 
*********************************************************************************************  
DGD     6       4       DGD  
RDGD    4       6       1E7  
M2      6       4       1       100     MSW1  
RSUB1   1       100     1E08  
*----------------------------- LAST SECTION FOR CONSTANT CGD  -----------------------------*  
CGDMAX  4       7       1.99E-09  
RCGD    4       7       1E7  
M3      7       4       1       101     MSW2  
RSUB2   1       101     1E12  
*---------------------------- END GATE CAPACITANCE SIMULATOR ------------------------------  
*********************************************************************************************  
********************************************************************************************                                                                                           
*--------------------------- LEVEL 3 MOS MODEL CORE OF SUBCKT -----------------------------
*  
M1      2       1       3       9       MAIN    W=2.77  L=1E-6  
*
*------------------------------ END LEVEL THREE MOS MODEL ---------------------------------*  
* ********************************************************************************************  
*------------------------------ PARAMETER SETS FOR MODELS ---------------------------------*   
.MODEL  MSW1    NMOS    (
+      LEVEL = 1
+        VTO = 0
+         KP = 10 )
.MODEL  MSW2    PMOS    (
+      LEVEL = 1
+        VTO = 0
+         KP = 10 )
.MODEL  MAIN    NMOS    (
+      LEVEL = 3
+	PHI = 0.5
+        VTO = 3.621
+         IS = 1E-12
+       NSUB = 1.141E16
+        NFS = 1.962E12
+         UO = 78
+      KAPPA = 1E-3
+ )
.MODEL  DDS1    D       (
+         IS = 1.274E-12
+          N = 1.0492
+         TT = 4.0E-6
+        CJO = 1.03E-09
+         VJ = .857
+          M = 0.457
+         EG = 1.11
+        XTI = 6.0
+         KF = 0
+         AF = 1
+         FC = .500
+         BV = 100
+        IBV = 2.5E-4
+ )
.MODEL  DGD     D       (
+         IS = 1E-14
+         RS = 0
+          N = 1
+         TT = 0
+        CJO = 1.99E-09
+         VJ = 0.497
+          M = .758
+         EG = 1.11
+        XTI = 3
+         KF = 0
+         AF = 1
+         FC = .5
+         BV = 150.0
+        IBV = 1E-3
+ )
.ENDS  FRL130
*
*$
.model IRF034	NMOS(Level=3 Gamma=0 Delta=0 Eta=0 Theta=0 Kappa=0.2 Vmax=0 Xj=0
+		Tox=100n Uo=600 Phi=.6 Rs=31.69m Kp=21.5u W=1.3 L=2u Vto=3.441
+		Rd=1.139m Rds=266.7K Cbd=2.857n Pb=.8 Mj=.5 Fc=.5 Cgso=579p
+		Cgdo=456.3p Rg=8.548 Is=184.5f N=1 Tt=365n)
*		Int'l Rectifier	pid=IRFC034	case=TO3
*		88-08-25 bam	creation
*$
.model IRF035	NMOS(Level=3 Gamma=0 Delta=0 Eta=0 Theta=0 Kappa=0.2 Vmax=0 Xj=0
+		Tox=100n Uo=600 Phi=.6 Rs=26.53m Kp=20.69u W=1.2 L=2u Vto=3.441
+		Rd=9.954m Rds=266.7K Cbd=2.857n Pb=.8 Mj=.5 Fc=.5 Cgso=598.7p
+		Cgdo=495.7p Rg=8.685 Is=1.264p N=1 Tt=365n)
*		Int'l Rectifier 	pid=IRFC034	case=TO3
*		88-08-25 bam	creation
*$
.model IRF044	NMOS(Level=3 Gamma=0 Delta=0 Eta=0 Theta=0 Kappa=0.2 Vmax=0 Xj=0
+		Tox=100n Uo=600 Phi=.6 Rs=10.08m Kp=21.21u W=1.3 L=2u Vto=3.441
+		Rd=.479m Rds=266.7K Cbd=5.111n Pb=.8 Mj=.5 Fc=.5 Cgso=830.7p
+		Cgdo=1.012n Rg=7.817 Is=228.7f N=1 Tt=103n)
*		Int'l Rectifier	pid=IRFC044	case=TO3
*		88-08-25 bam	creation
*$
.model IRF045	NMOS(Level=3 Gamma=0 Delta=0 Eta=0 Theta=0 Kappa=0.2 Vmax=0 Xj=0
+		Tox=100n Uo=600 Phi=.6 Rs=10.08m Kp=21.21u W=1.3 L=2u Vto=3.441
+		Rd=5.892m Rds=266.7K Cbd=5.111n Pb=.8 Mj=.5 Fc=.5 Cgso=830.7p
+		Cgdo=1.012n Rg=7.817 Is=939.1f N=1 Tt=103n)
*		Int'l Rectifier	pid=IRFC044	case=TO3
*		88-08-25 bam	creation
*$
.model IRF120	NMOS(Level=3 Gamma=0 Delta=0 Eta=0 Theta=0 Kappa=0.2 Vmax=0 Xj=0
+		Tox=100n Uo=600 Phi=.6 Rs=.1421 Kp=20.62u W=.7 L=2u Vto=3.762
+		Rd=82.05m Rds=444.4K Cbd=640.5p Pb=.8 Mj=.5 Fc=.5 Cgso=542p
+		Cgdo=142.9p Rg=7.365 Is=16.64p N=1 Tt=137n)
*		Int'l Rectifier	pid=IRFC120	case=TO3
*		88-08-25 bam	creation
*$
.model IRF121	NMOS(Level=3 Gamma=0 Delta=0 Eta=0 Theta=0 Kappa=0.2 Vmax=0 Xj=0
+		Tox=100n Uo=600 Phi=.6 Rs=.1421 Kp=20.62u W=.7 L=2u Vto=3.762
+		Rd=82.05m Rds=355.6K Cbd=640.5p Pb=.8 Mj=.5 Fc=.5 Cgso=503.3p
+		Cgdo=181.6p Rg=4.962 Is=16.64p N=1 Tt=137n)
*		Int'l Rectifier	pid=IRFC120	case=TO3
*		88-08-25 bam	creation
*$
.model IRF122	NMOS(Level=3 Gamma=0 Delta=0 Eta=0 Theta=0 Kappa=0.2 Vmax=0 Xj=0
+		Tox=100n Uo=600 Phi=.6 Rs=.1284 Kp=20.58u W=.59 L=2u Vto=3.762
+		Rd=.1113 Rds=444.4K Cbd=640.5p Pb=.8 Mj=.5 Fc=.5 Cgso=619.6p
+		Cgdo=169.8p Rg=7.846 Is=120.1p N=1 Tt=137n)
*		Int'l Rectifier	pid=IRFC120	case=TO3
*		88-08-25 bam	creation
*$
.model IRF123	NMOS(Level=3 Gamma=0 Delta=0 Eta=0 Theta=0 Kappa=0.2 Vmax=0 Xj=0
+		Tox=100n Uo=600 Phi=.6 Rs=.1284 Kp=20.58u W=.59 L=2u Vto=3.762
+		Rd=.1113 Rds=355.6K Cbd=640.5p Pb=.8 Mj=.5 Fc=.5 Cgso=573.4p
+		Cgdo=215.9p Rg=5.309 Is=120.1p N=1 Tt=137n)
*		Int'l Rectifier	pid=IRFC120	case=TO3
*		88-08-25 bam	creation
*$
.model IRF130	NMOS(Level=3 Gamma=0 Delta=0 Eta=0 Theta=0 Kappa=0.2 Vmax=0 Xj=0
+		Tox=100n Uo=600 Phi=.6 Rs=74.91m Kp=20.8u W=.9 L=2u Vto=3.412
+		Rd=26.95m Rds=444.4K Cbd=1.115n Pb=.8 Mj=.5 Fc=.5 Cgso=679.6p