* Library of Thyristor models:
*       including SCR, Triac, and Unijunction Transistor models

*  Copyright OrCAD, Inc. 1998 All Rights Reserved.

* $Revision:   1.22  $
* $Author:   RPEREZ  $
* $Date:   20 Jul 1998 11:12:22  $

*----------------------------------------------------------------------------

* OrCAD Incorporated would like to acknowledge Sandia National Laboratories
* for the contribution of their measurement-based models included in this
* library.

*----------------------------------------------------------------------------

* Library of SCR models.

* NOTE:  This library requires the "Analog Behavioral Modeling"
*        option available with PSpice.  A model developed without
*        Behavioral Modeling was found to be very slow and not
*        very robust.

* This macromodel uses a controlled switch as the basic SCR structure.  In
* all cases, the designer should use the manufacturer's data book for actual
* part selection.

* The required parameters were derived from data sheet (Motorola) information
* on each part.  When available, only "typical" parameters are used (except
* for Idrm which is always a "max" value).  If a "typical" parameter is not
* available, a "min" or "max" value may be used in which case a comment is
* made in the library.

* The SCRs are modeled at room temperature and do not track changes with
* temperature.  Note that Vdrm is specified by the manufacturer as valid over
* a temperature range.  Also, in nearly all cases, dVdt and Toff are specified
* by the manufacturer at approximately 100 degrees C.  This results in a model
* which is somewhat "conservative" for a room temperature model.

* The parameter dVdt (when available from the date sheet) is used to model the
* Critical Rate of Rise of Off-State Voltage.  If not specified, dVdt is
* defaulted to 1000 V/microsecond.  A side effect of this model is that the
* turn-on current, Ion, is determined by Vtm/(Ih*Vdrm).  Vtm is also used as
* the holding voltage.

*$
.subckt Scr anode gate cathode PARAMS:
+ Vdrm=400v     Vrrm=400v     Idrm=10u
+ Ih=6ma        dVdt=5e7
+ Igt=5ma       Vgt=0.7v
+ Vtm=1.7v      Itm=24
+ Ton=1u        Toff=15u

* Where:
* Vdrm =>  Forward breakover voltage
* Vrrm =>  Reverse breakdown voltage
* Idrm =>  Peak blocking current
* Ih   =>  Holding current
* dVdt =>  Critical value for dV/dt triggering
* Igt  =>  Gate trigger current
* Vgt  =>  Gate trigger voltage
* Vtm  =>  On-state voltage
* Itm  =>  On-state current
* Ton  =>  Turn-on time
* Toff =>  Turn-off time

* Main conduction path
Scr      anode   anode0  control 0       Vswitch ; controlled switch
Dak1     anode0  anode2  Dakfwd  OFF             ; SCR is initially off
Dka      cathode anode0  Dkarev  OFF
VIak     anode2  cathode                         ; current sensor

* dVdt Turn-on
Emon     dvdt0   0       TABLE {v(anode,cathode)} (0 0) (2000 2000)
CdVdt    dvdt0   dvdt1   100pfd                  ; displacement current
Rdlay    dvdt1   dvdt2   1k
VdVdt    dvdt2   cathode DC 0.0
EdVdt    condvdt 0       TABLE {i(vdVdt)-100p*dVdt}  (0 0 ) (.1m 10)
RdVdt    condvdt 0       1meg

* Gate
Rseries  gate    gate1   {(Vgt-0.65)/Igt}
Rshunt   gate1   gate2   {0.65/Igt}
Dgkf     gate1   gate2   Dgk
VIgf     gate2   cathode                         ; current sensor

* Gate Turn-on
Egate1   gate4   0       TABLE {i(Vigf)-0.95*Igt} (0 0) (1m 10)
Rgate1   gate4   0       1meg
Egon1    congate 0       TABLE {v(gate4)*v(anode,cathode)} (0 0) (10 10)
Rgon1    congate 0       1meg

* Main Turn-on
EItot    Itot    0       TABLE {i(VIak)+5E-5*i(VIgf)/Igt} (0 0) (2000 2000)
RItot    Itot    0       1meg
Eprod    prod    0       TABLE {v(anode,cathode)*v(Itot)} (0 0) (10 10)
Rprod    prod    0       1meg
Elin     conmain 0       TABLE
+        {10*(v(prod) - (Vtm*Ih))/(Vtm*Ih)} (0 0) (2 10)
Rlin     conmain 0       1meg

* Turn-on/Turn-off control
Eonoff   contot  0       TABLE
+        {v(congate)+v(conmain)+v(condvdt)} (0 0) (10 10)

* Turn-on/Turn-off delays
Rton    contot  dlay1   825
Dton    dlay1   control Delay
Rtoff   contot  dlay2   {290*Toff/Ton}
Dtoff   control dlay2   Delay
Cton    control 0       {Ton/454}

* Reverse breakdown
Dbreak  anode   break1  Dbreak
Dbreak2 cathode break1  Dseries

* Controlled switch model
.MODEL Vswitch vswitch
+ (Ron = {(Vtm-0.7)/Itm}, Roff = {Vdrm*Vdrm/(Vtm*Ih)},
+  Von = 5.0,             Voff = 1.5)

* Diodes
.MODEL  Dgk     D       (Is=1E-16 Cjo=50pf Rs=5)
.MODEL  Dseries D       (Is=1E-14)
.MODEL  Delay   D       (Is=1E-12 Cjo=5pf  Rs=0.01)
.MODEL  Dkarev  D       (Is=1E-10 Cjo=5pf  Rs=0.01)
.MODEL  Dakfwd  D       (Is=4E-11 Cjo=5pf)
.MODEL  Dbreak  D       (Ibv=1E-7 Bv={1.1*Vrrm} Cjo=5pf Rs=0.5)

* Allow the gate to float if required
Rfloat  gate    cathode 1e10

.ends
*$

.subckt 2N1595          anode gate cathode
* "Typical" parameters
X1 anode gate cathode Scr params:
+ Vdrm=50v   Vrrm=50v     Ih=5ma       Vtm=1.1v     Itm=1
+ dVdt=1e9   Igt=2ma      Vgt=.7v      Ton=0.8u     Toff=10u
+ Idrm=10u
* 90-5-18    Motorola     DL137, Rev 2, 3/89
.ends
*$
* THIS FILE CONTAINS A PRE-RAD MODEL AT 75 C.
* PARAMETER MODEL EXTRACTED FROM MEASURED DATA UTILIZING AN SCR
* MODEL DEVELOPED BY AVANT, LEE, AND CHEN. FURTHER INFORMATION ON THE MODEL
* CAN BE FOUND IN THE IEEE POWER ELECTRONICS CONFERENCE PAPER (JULY 1981) THAT
* THEY PRESENTED. TITLE OF PAPER IS : "A PRACTICAL SCR MODEL FOR COMPUTER AIDED
* ANALYSIS OF AC RESONANT CHARGING CIRCUITS".

*
* THIS MODEL CORRECTLY SIMULATES THE MEASURED PARAMETERS OF
* TON, DV/DT, IH, IGT, RON, AND VT. THIS MODEL IS TO BE USED ONLY AT THE
* TEMP. FOR WHICH IT WAS EXTRACTED.
*
* A TURN-OFF TIME OF 15US WAS USED.
*

*
* THE FOLLOWING IS A PRE-RAD MODEL AT 75 C :
*
*                    ANODE
*                    |   GATE
*                    |   |    CATHODE
*                    |   |    |
.SUBCKT 2N1595/75C   4   1   10
R 1 10 3200
DFOR 1 3 DMOD1
Q1 1 3 4 QMOD1
Q2 3 1 10 QMOD2
.MODEL DMOD1 D(
+         IS = 1E-14
+         RS = 0
+          N = 1
+         TT = 0
+        CJO = 0
+         VJ = 1
+          M = .5
+         EG = 1.11
+        XTI = 3
+         KF = 0
+         AF = 1
+         FC = .5
+         BV = 288.5
+        IBV = .001
+ )
.MODEL QMOD1 PNP(
+         IS = 5.9E-15
+         BF = .19
+         NF = 1
+        VAF = 9.9999E+13
+        IKF = 9.9999E+13
+        ISE = 0
+         NE = 1.5
+         BR = .19
+         NR = 1
+        VAR = 9.9999E+13
+        IKR = 9.9999E+13
+        ISC = 0
+         NC = 2
+         RB = 0
+        IRB = 9.9999E+13
+        RBM = 0
+         RE = 0.0958
+         RC = 0
+        CJE = 0
+        VJE = .75
+        MJE = .33
+         TF = 2.8E-6
+        XTF = 0
+        VTF = 9.9999E+13
+        ITF = 0
+        PTF = 0
+        CJC = 0
+        VJC = .75
+        MJC = .33
+       XCJC = 1
+         TR = 135E-6
+        CJS = 0
+        VJS = .75
+        MJS = 0
+        XTB = 0
+         EG = 1.11
+        XTI = 3
+         KF = 0
+         AF = 1
+         FC = .5
+ )
.MODEL QMOD2 NPN(
+         IS = 5.9E-15
+         BF = 9
+         NF = 1
+        VAF = 9.9999E+13
+        IKF = 9.9999E+13
+        ISE = 0
+         NE = 1.5
+         BR = 1
+         NR = 1
+        VAR = 9.9999E+13
+        IKR = 9.9999E+13
+        ISC = 0
+         NC = 2
+         RB = 0
+        IRB = 9.9999E+13
+        RBM = 0
+         RE = 0
+         RC = 0
+        CJE = 0
+        VJE = .75
+        MJE = .33
+         TF = 0
+        XTF = 0
+        VTF = 9.9999E+13
+        ITF = 0
+        PTF = 0
+        CJC = 34E-12
+        VJC = .75
+        MJC = .33
+       XCJC = 1
+         TR = 0
+        CJS = 0
+        VJS = .75
+        MJS = 0
+        XTB = 0
+         EG = 1.11
+        XTI = 3
+         KF = 0
+         AF = 1
+         FC = .5
+ )
.ENDS 2N1595/75C
*$
.subckt 2N1596          anode gate cathode
* "Typical" parameters
X1 anode gate cathode Scr params:
+ Vdrm=100v  Vrrm=100v    Ih=5ma       Vtm=1.1v     Itm=1
+ dVdt=1e9   Igt=2ma      Vgt=.7v      Ton=0.8u     Toff=10u
+ Idrm=10u
* 90-5-18    Motorola     DL137, Rev 2, 3/89
.ends
*$

.subckt 2N1597          anode gate cathode
* "Typical" parameters
X1 anode gate cathode Scr params:
+ Vdrm=200v  Vrrm=200v    Ih=5ma       Vtm=1.1v     Itm=1
+ dVdt=1e9   Igt=2ma      Vgt=.7v      Ton=0.8u     Toff=10u
+ Idrm=10u
* 90-5-18    Motorola     DL137, Rev 2, 3/89
.ends
*$

.subckt 2N1599          anode gate cathode
* "Typical" parameters
X1 anode gate cathode Scr params:
+ Vdrm=400v  Vrrm=400v    Ih=5ma       Vtm=1.1v     Itm=1
+ dVdt=1e9   Igt=2ma      Vgt=.7v      Ton=0.8u     Toff=10u
+ Idrm=10u
* 90-5-18    Motorola     DL137, Rev 2, 3/89
.ends
*$

.subckt 2N2573          anode gate cathode
* Min and Max parameters
X1 anode gate cathode Scr params:
+ Vdrm=25v   Vrrm=25v     Ih=10ma      Vtm=1.1v     Itm=20
+ dVdt=30e6  Igt=40ma     Vgt=3.5v     Ton=1u       Toff=30u
+ Idrm=10u
* 90-5-18    Motorola     DL137, 1985 OB
.ends
*$

.subckt 2N2574          anode gate cathode
* Min and Max parameters
X1 anode gate cathode Scr params:
+ Vdrm=50v   Vrrm=50v     Ih=10ma      Vtm=1.1v     Itm=20
+ dVdt=30e6  Igt=40ma     Vgt=3.5v     Ton=1u       Toff=30u
+ Idrm=10u
* 90-5-18    Motorola     DL137, 1985 NR
.ends
*$

.subckt 2N2575          anode gate cathode
* Min and Max parameters
X1 anode gate cathode Scr params:
+ Vdrm=100v  Vrrm=100v    Ih=10ma      Vtm=1.1v     Itm=20
+ dVdt=30e6  Igt=40ma     Vgt=3.5v     Ton=1u       Toff=30u
+ Idrm=10u
* 90-5-18    Motorola     DL137, 1985 NR
.ends
*$

.subckt 2N2576          anode gate cathode
* Min and Max parameters
X1 anode gate cathode Scr params:
+ Vdrm=200v  Vrrm=200v    Ih=10ma      Vtm=1.1v     Itm=20
+ dVdt=30e6  Igt=40ma     Vgt=3.5v     Ton=1u       Toff=30u
+ Idrm=10u
* 90-5-18    Motorola     DL137, 1985 NR
.ends
*$

.subckt 2N2577          anode gate cathode
* Min and Max parameters
X1 anode gate cathode Scr params:
+ Vdrm=300v  Vrrm=300v    Ih=10ma      Vtm=1.1v     Itm=20
+ dVdt=30e6  Igt=40ma     Vgt=3.5v     Ton=1u       Toff=30u
+ Idrm=10u
* 90-5-18    Motorola     DL137, 1985 OB
.ends
*$

.subckt 2N2578          anode gate cathode
* Min and Max parameters
X1 anode gate cathode Scr params:
+ Vdrm=400v  Vrrm=400v    Ih=10ma      Vtm=1.1v     Itm=20
+ dVdt=30e6  Igt=40ma     Vgt=3.5v     Ton=1u       Toff=30u
+ Idrm=10u
* 90-5-18    Motorola     DL137, 1985 NR
.ends
*$

.subckt 2N2579          anode gate cathode
* Min and Max parameters
X1 anode gate cathode Scr params:
+ Vdrm=500v  Vrrm=500v    Ih=10ma      Vtm=1.1v     Itm=20
+ dVdt=30e6  Igt=40ma     Vgt=3.5v     Ton=1u       Toff=30u
+ Idrm=10u
* 90-5-18    Motorola     DL137, 1985 OB
.ends
*$

.subckt 2N3668          anode gate cathode
* "Typical" parameters
X1 anode gate cathode Scr params:
+ Vdrm=100v  Vrrm=100v    Ih=20ma      Vtm=1.1v     Itm=25
+ dVdt=10e7  Igt=7ma      Vgt=1.0v     Ton=.5u      Toff=20u
+ Idrm=10u
* 90-5-18    Motorola     DL137, 1985 OB
.ends
*$

.subckt 2N3669          anode gate cathode
* "Typical" parameters
X1 anode gate cathode Scr params:
+ Vdrm=200v  Vrrm=200v    Ih=20ma      Vtm=1.1v     Itm=25
+ dVdt=10e7  Igt=7ma      Vgt=1.0v     Ton=.5u      Toff=20u
+ Idrm=10u
* 90-5-18    Motorola     DL137, 1985 OB
.ends
*$

.subckt 2N3670          anode gate cathode
* "Typical" parameters
X1 anode gate cathode Scr params:
+ Vdrm=400v  Vrrm=400v    Ih=20ma      Vtm=1.1v     Itm=25
+ dVdt=10e7  Igt=7ma      Vgt=1.0v     Ton=.5u      Toff=20u
+ Idrm=10u
* 90-5-18    Motorola     DL137, 1985 OB
.ends
*$

.subckt 2N3870          anode gate cathode
* Min and Max parameters
X1 anode gate cathode Scr params:
+ Vdrm=100v  Vrrm=100v    Ih=5.2ma     Vtm=1.5v     Itm=69
+ dVdt=50e6  Igt=4ma      Vgt=.69v     Ton=1.5u     Toff=25u
+ Idrm=10u
* 90-5-18    Motorola     DL137, Rev 2, 3/89
.ends
*$

.subckt 2N3871          anode gate cathode
* Min and Max parameters
X1 anode gate cathode Scr params:
+ Vdrm=200v  Vrrm=200v    Ih=5.2ma     Vtm=1.5v     Itm=69
+ dVdt=50e6  Igt=4ma      Vgt=.69v     Ton=1.5u     Toff=25u
+ Idrm=10u
* 90-5-18    Motorola     DL137, Rev 2, 3/89
.ends
*$

.subckt 2N3872          anode gate -cathode
* Min and Max parameters
X1 anode gate cathode Scr params:
+ Vdrm=400v  Vrrm=400v    Ih=5.2ma     Vtm=1.5v     Itm=69
+ dVdt=50e6  Igt=4ma      Vgt=.69v     Ton=1.5u     Toff=25u
+ Idrm=10u
* 90-5-18    Motorola     DL137, Rev 2, 3/89
.ends
*$

.subckt 2N3873          anode gate cathode
* Min and Max parameters
X1 anode gate cathode Scr params:
+ Vdrm=600v  Vrrm=600v    Ih=5.2ma     Vtm=1.5v     Itm=69
+ dVdt=50e6  Igt=4ma      Vgt=.69v     Ton=1.5u     Toff=25u
+ Idrm=10u
* 90-5-18    Motorola     DL137, Rev 2, 3/89
.ends
*$

.subckt 2N3896          anode gate cathode
* Min and Max parameters
X1 anode gate cathode Scr params:
+ Vdrm=100v  Vrrm=100v    Ih=5.2ma     Vtm=1.5v     Itm=69
+ dVdt=50e6  Igt=4ma      Vgt=.69v     Ton=1.5u     Toff=25u
+ Idrm=10u
* 90-5-18    Motorola     DL137, 1985 OB
.ends
*$

.subckt 2N3897          anode gate cathode
* Min and Max parameters
X1 anode gate cathode Scr params:
+ Vdrm=200v  Vrrm=200v    Ih=5.2ma     Vtm=1.5v     Itm=69
+ dVdt=50e6  Igt=4ma      Vgt=.69v     Ton=1.5u     Toff=25u
+ Idrm=10u
* 90-5-18    Motorola     DL137, 1985 OB
.ends
*$

.subckt 2N3898          anode gate cathode
* Min and Max parameters
X1 anode gate cathode Scr params:
+ Vdrm=400v  Vrrm=400v    Ih=5.2ma     Vtm=1.5v     Itm=69
+ dVdt=50e6  Igt=4ma      Vgt=.69v     Ton=1.5u     Toff=25u
+ Idrm=10u
* 90-5-18    Motorola     DL137, 1985 OB
.ends
*$

.subckt 2N3899          anode gate cathode
* Min and Max parameters
X1 anode gate cathode Scr params:
+ Vdrm=600v  Vrrm=600v    Ih=5.2ma     Vtm=1.5v     Itm=69
+ dVdt=50e6  Igt=4ma      Vgt=.69v     Ton=1.5u     Toff=25u
+ Idrm=10u
* 90-5-18    Motorola     DL137, 1985 OB
.ends
*$

.subckt 2N4103          anode gate cathode
* "Typical" parameters
X1 anode gate cathode Scr params:
+ Vdrm=600v  Vrrm=600v    Ih=20ma      Vtm=1.1v     Itm=25
+ dVdt=10e7  Igt=7ma      Vgt=1.0v     Ton=.5u      Toff=20u
+ Idrm=10u
* 90-5-18    Motorola     DL137, 1985 OB
.ends
*$

.subckt 2N4167          anode gate cathode
* "Typical" parameters
X1 anode gate cathode Scr params:
+ Vdrm=25v   Vrrm=25v     Ih=10ma      Vtm=1.4v     Itm=15.7
+ dVdt=5e7   Igt=10ma     Vgt=.75v     Ton=1u       Toff=15u
+ Idrm=10u
* 90-5-18    Motorola     DL137, 1985 OB
.ends
*$

.subckt 2N4168          anode gate cathode
* "Typical" parameters
X1 anode gate cathode Scr params:
+ Vdrm=50v   Vrrm=50v     Ih=10ma      Vtm=1.4v     Itm=15.7
+ dVdt=5e7   Igt=10ma     Vgt=.75v     Ton=1u       Toff=15u
+ Idrm=10u
* 90-5-18    Motorola     DL137, 1985 NR
.ends
*$

.subckt 2N4169          anode gate cathode
* "Typical" parameters
X1 anode gate cathode Scr params:
+ Vdrm=100v  Vrrm=100v    Ih=10ma      Vtm=1.4v     Itm=15.7
+ dVdt=5e7   Igt=10ma     Vgt=.75v     Ton=1u       Toff=15u
+ Idrm=10u
* 90-5-18    Motorola     DL137, 1985 NR
.ends
*$

.subckt 2N4170          anode gate cathode
* "Typical" parameters
X1 anode gate cathode Scr params:
+ Vdrm=200v  Vrrm=200v    Ih=10ma      Vtm=1.4v     Itm=15.7
+ dVdt=5e7   Igt=10ma     Vgt=.75v     Ton=1u       Toff=15u
+ Idrm=10u
* 90-5-18    Motorola     DL137, 1985 NR
.ends
*$

.subckt 2N4171          anode gate cathode
* "Typical" parameters
X1 anode gate cathode Scr params:
+ Vdrm=300v  Vrrm=300v    Ih=10ma      Vtm=1.4v     Itm=15.7
+ dVdt=5e7   Igt=10ma     Vgt=.75v     Ton=1u       Toff=15u
+ Idrm=10u
* 90-5-18    Motorola     DL137, 1985 OB
.ends
*$

.subckt 2N4172          anode gate cathode
* "Typical" parameters
X1 anode gate cathode Scr params:
+ Vdrm=400v  Vrrm=400v    Ih=10ma      Vtm=1.4v     Itm=15.7
+ dVdt=5e7   Igt=10ma     Vgt=.75v     Ton=1u       Toff=15u
+ Idrm=10u
* 90-5-18    Motorola     DL137, 1985 NR
.ends
*$

.subckt 2N4173          anode gate cathode
* "Typical" parameters
X1 anode gate cathode Scr params:
+ Vdrm=500v  Vrrm=500v    Ih=10ma      Vtm=1.4v     Itm=15.7
+ dVdt=5e7   Igt=10ma     Vgt=.75v     Ton=1u       Toff=15u
+ Idrm=10u
* 90-5-18    Motorola     DL137, 1985 OB
.ends
*$

.subckt 2N4174          anode gate cathode
* "Typical" parameters
X1 anode gate cathode Scr params:
+ Vdrm=600v  Vrrm=600v    Ih=10ma      Vtm=1.4v     Itm=15.7
+ dVdt=5e7   Igt=10ma     Vgt=.75v     Ton=1u       Toff=15u
+ Idrm=10u
* 90-5-18    Motorola     DL137, 1985 NR
.ends
*$

.subckt 2N4183          anode gate cathode
* "Typical" parameters
X1 anode gate cathode Scr params:
+ Vdrm=25v   Vrrm=25v     Ih=10ma      Vtm=1.4v     Itm=15.7
+ dVdt=5e7   Igt=10ma     Vgt=.75v     Ton=1u       Toff=15u
+ Idrm=10u
* 90-5-18    Motorola     DL137, 1985 OB
.ends
*$

.subckt 2N4184          anode gate cathode
* "Typical" parameters
X1 anode gate cathode Scr params:
+ Vdrm=50v   Vrrm=50v     Ih=10ma      Vtm=1.4v     Itm=15.7
+ dVdt=5e7   Igt=10ma     Vgt=.75v     Ton=1u       Toff=15u
+ Idrm=10u
* 90-5-18    Motorola     DL137, 1985 NR
.ends
*$

.subckt 2N4185          anode gate cathode
* "Typical" parameters
X1 anode gate cathode Scr params:
+ Vdrm=100v  Vrrm=100v    Ih=10ma      Vtm=1.4v     Itm=15.7
+ dVdt=5e7   Igt=10ma     Vgt=.75v     Ton=1u       Toff=15u
+ Idrm=10u
* 90-5-18    Motorola     DL137, 1985 NR
.ends
*$

.subckt 2N4186          anode gate cathode
* "Typical" parameters
X1 anode gate cathode Scr params:
+ Vdrm=200v  Vrrm=200v    Ih=10ma      Vtm=1.4v     Itm=15.7
+ dVdt=5e7   Igt=10ma     Vgt=.75v     Ton=1u       Toff=15u
+ Idrm=10u
* 90-5-18    Motorola     DL137, 1985
.ends
*$

.subckt 2N4187          anode gate cathode
* "Typical" parameters
X1 anode gate cathode Scr params:
+ Vdrm=300v  Vrrm=300v    Ih=10ma      Vtm=1.4v     Itm=15.7
+ dVdt=5e7   Igt=10ma     Vgt=.75v     Ton=1u       Toff=15u
+ Idrm=10u
* 90-5-18    Motorola     DL137, 1985 OB
.ends
*$

.subckt 2N4188          anode gate cathode
* "Typical" parameters
X1 anode gate cathode Scr params:
+ Vdrm=400v  Vrrm=400v    Ih=10ma      Vtm=1.4v     Itm=15.7
+ dVdt=5e7   Igt=10ma     Vgt=.75v     Ton=1u       Toff=15u
+ Idrm=10u
* 90-5-18    Motorola     DL137, 1985 NR
.ends
*$

.subckt 2N4189          anode gate cathode
* "Typical" parameters
X1 anode gate cathode Scr params:
+ Vdrm=500v  Vrrm=500v    Ih=10ma      Vtm=1.4v     Itm=15.7
+ dVdt=5e7   Igt=10ma     Vgt=.75v     Ton=1u       Toff=15u
+ Idrm=10u
* 90-5-18    Motorola     DL137, 1985 OB
.ends
*$

.subckt 2N4190          anode gate cathode
* "Typical" parameters
X1 anode gate cathode Scr params:
+ Vdrm=600v  Vrrm=600v    Ih=10ma      Vtm=1.4v     Itm=15.7
+ dVdt=5e7   Igt=10ma     Vgt=.75v     Ton=1u       Toff=15u
+ Idrm=10u
* 90-5-18    Motorola     DL137, 1985 NR
.ends
*$

.subckt 2N4199          anode gate cathode
* Min and Max parameters
X1 anode gate cathode Scr params:
+ Vdrm=300v  Vrrm=50v     Ih=3ma       Vtm=2.6v     Itm=5
+ dVdt=250e6 Igt=50ma     Vgt=1.5v     Ton=.4u      Toff=20u
+ Idrm=10u
* 90-5-18    Motorola     DL137, Rev 2, 3/89
.ends
*$

.subckt 2N4200          anode gate cathode
* Min and Max parameters
X1 anode gate cathode Scr params:
+ Vdrm=400v  Vrrm=50v     Ih=3ma       Vtm=2.6v     Itm=5
+ dVdt=250e6 Igt=50ma     Vgt=1.5v     Ton=.4u      Toff=20u
+ Idrm=10u
* 90-5-18    Motorola     DL137, Rev 2, 3/89
.ends
*$

.subckt 2N4201          anode gate cathode
* Min and Max parameters
X1 anode gate cathode Scr params:
+ Vdrm=500v  Vrrm=50v     Ih=3ma       Vtm=2.6v     Itm=5
+ dVdt=250e6 Igt=50ma     Vgt=1.5v     Ton=.35u     Toff=20u
+ Idrm=10u
* 90-5-18    Motorola     DL137, Rev 2, 3/89
.ends
*$

.subckt 2N4202          anode gate cathode
* Min and Max parameters
X1 anode gate cathode Scr params:
+ Vdrm=600v  Vrrm=50v     Ih=3ma       Vtm=2.6v     Itm=5
+ dVdt=250e6 Igt=50ma     Vgt=1.5v     Ton=.33u     Toff=20u
+ Idrm=10u
* 90-5-18    Motorola     DL137, Rev 2, 3/89
.ends
*$

.subckt 2N4203          anode gate cathode
* Min and Max parameters
X1 anode gate cathode Scr params:
+ Vdrm=700v  Vrrm=50v     Ih=3ma       Vtm=2.6v     Itm=5
+ dVdt=250e6 Igt=50ma     Vgt=1.5v     Ton=.3u      Toff=20u
+ Idrm=10u
* 90-5-18    Motorola     DL137, Rev 2, 3/89
.ends
*$

.subckt 2N4204          anode gate cathode
* Min and Max parameters
X1 anode gate cathode Scr params:
+ Vdrm=800v  Vrrm=50v     Ih=3ma       Vtm=2.6v     Itm=5
+ dVdt=250e6 Igt=50ma     Vgt=1.5v     Ton=.3u      Toff=20u
+ Idrm=10u
* 90-5-18    Motorola     DL137, Rev 2, 3/89
.ends
*$

.subckt 2N4441          anode gate cathode
* "Typical" parameters
X1 anode gate cathode Scr params:
+ Vdrm=50v   Vrrm=50v     Ih=6ma       Vtm=1.0v     Itm=5
+ dVdt=5e7   Igt=7ma      Vgt=0.75v    Ton=1u       Toff=15u
+ Idrm=10u
* 90-5-18    Motorola     DL137, 1985 OB
.ends
*$

.subckt 2N4442          anode gate cathode
* "Typical" parameters
X1 anode gate cathode Scr params:
+ Vdrm=200v  Vrrm=200v    Ih=6ma       Vtm=1.0v     Itm=5
+ dVdt=5e7   Igt=7ma      Vgt=0.75v    Ton=1u       Toff=15u
+ Idrm=10u
* 90-5-18    Motorola     DL137, 1985 OB
.ends
*$

.subckt 2N4443          anode gate cathode
* "Typical" parameters
X1 anode gate cathode Scr params:
+ Vdrm=400v  Vrrm=400v    Ih=6ma       Vtm=1.0v     Itm=5
+ dVdt=5e7   Igt=7ma      Vgt=0.75v    Ton=1u       Toff=15u
+ Idrm=10u
* 90-5-18    Motorola     DL137, 1985 OB
.ends
*$

.subckt 2N4444          anode gate cathode
* "Typical" parameters
X1 anode gate cathode Scr params:
+ Vdrm=600v  Vrrm=600v    Ih=6ma       Vtm=1.0v     Itm=5
+ dVdt=5e7   Igt=7ma      Vgt=0.75v    Ton=1u       Toff=15u
+ Idrm=10u
* 90-5-18    Motorola     DL137, 1985 OB
.ends
*$

.subckt 2N5060          anode gate cathode
* Min and Max parameters
X1 anode gate cathode Scr params:
+ Vdrm=30v   Vrrm=30v     Ih=5ma       Vtm=1.7v     Itm=1.2
+ dVdt=30e6  Igt=0.2ma    Vgt=.8v      Ton=3.2u     Toff=10u
+ Idrm=10u
* 90-5-18    Motorola     DL137, Rev 2, 3/89
.ends
*$

.subckt 2N5061          anode gate cathode
* Min and Max parameters
X1 anode gate cathode Scr params:
+ Vdrm=60v   Vrrm=60v     Ih=5ma       Vtm=1.7v     Itm=1.2
+ dVdt=30e6  Igt=0.2ma    Vgt=.8v      Ton=3.2u     Toff=10u
+ Idrm=10u
* 90-5-18    Motorola     DL137, Rev 2, 3/89
.ends
*$

.subckt 2N5062          anode gate cathode
* Min and Max parameters
X1 anode gate cathode Scr params:
+ Vdrm=100v  Vrrm=100v    Ih=5ma       Vtm=1.7v     Itm=1.2
+ dVdt=30e6  Igt=0.2ma    Vgt=.8v      Ton=3.2u     Toff=30u
+ Idrm=10u
* 90-5-18    Motorola     DL137, Rev 2, 3/89
.ends
*$

.subckt 2N5063          anode gate cathode
* Min and Max parameters
X1 anode gate cathode Scr params:
+ Vdrm=150v  Vrrm=150v    Ih=5ma       Vtm=1.7v     Itm=1.2
+ dVdt=30e6  Igt=0.2ma    Vgt=.8v      Ton=3.2u     Toff=30u
+ Idrm=10u
* 90-5-18    Motorola     DL137, Rev 2, 3/89
.ends
*$

.subckt 2N5064          anode gate cathode
* Min and Max parameters
X1 anode gate cathode Scr params:
+ Vdrm=200v  Vrrm=200v    Ih=5ma       Vtm=1.7v     Itm=1.2
+ dVdt=30e6  Igt=0.2ma    Vgt=.8v      Ton=3.2u     Toff=30u
+ Idrm=10u
* 90-5-18    Motorola     DL137, Rev 2, 3/89
.ends
*$

.subckt 2N5168          anode gate cathode
* Min and Max parameters
X1 anode gate cathode Scr params:
+ Vdrm=50v   Vrrm=50v     Ih=50ma      Vtm=1.5v     Itm=20
+ dVdt=50e6  Igt=40ma     Vgt=1.5v     Ton=1u       Toff=20u
+ Idrm=10u
* 90-5-18    Motorola     DL137, Rev 2, 3/89
.ends
*$

.subckt 2N5169          anode gate cathode
* Min and Max parameters
X1 anode gate cathode Scr params:
+ Vdrm=200v  Vrrm=200v    Ih=50ma      Vtm=1.5v     Itm=20
+ dVdt=50e6  Igt=40ma     Vgt=1.5v     Ton=1u       Toff=20u
+ Idrm=10u
* 90-5-18    Motorola     DL137, Rev 2, 3/89
.ends
*$

.subckt 2N5170          anode gate cathode
* Min and Max parameters
X1 anode gate cathode Scr params:
+ Vdrm=400v  Vrrm=400v    Ih=50ma      Vtm=1.5v     Itm=20
+ dVdt=50e6  Igt=40ma     Vgt=1.5v     Ton=1u       Toff=20u
+ Idrm=10u
* 90-5-18    Motorola     DL137, Rev 2, 3/89
.ends
*$

.subckt 2N5171          anode gate cathode
* Min and Max parameters
X1 anode gate cathode Scr params:
+ Vdrm=600v  Vrrm=600v    Ih=50ma      Vtm=1.5v     Itm=20
+ dVdt=50e6  Igt=40ma     Vgt=1.5v     Ton=1u       Toff=20u
+ Idrm=10u
* 90-5-18    Motorola     DL137, Rev 2, 3/89
.ends
*$

.subckt 2N6167          anode gate cathode
* Min and Max parameters
X1 anode gate cathode Scr params:
+ Vdrm=100v  Vrrm=100v    Ih=3.5ma     Vtm=1.5v     Itm=41
+ dVdt=50e6  Igt=2.1ma    Vgt=.63v     Ton=1u       Toff=25u
+ Idrm=10u
* 90-5-18    Motorola     DL137, Rev 2, 3/89
.ends
*$

.subckt 2N6168          anode gate cathode
* Min and Max parameters
X1 anode gate cathode Scr params:
+ Vdrm=200v  Vrrm=200v    Ih=3.5ma     Vtm=1.5v     Itm=41
+ dVdt=50e6  Igt=2.1ma    Vgt=.63v     Ton=1u       Toff=25u
+ Idrm=10u
* 90-5-18    Motorola     DL137, Rev 2, 3/89
.ends
*$

.subckt 2N6169          anode gate cathode
* Min and Max parameters
X1 anode gate cathode Scr params:
+ Vdrm=400v  Vrrm=400v    Ih=3.5ma     Vtm=1.5v     Itm=41
+ dVdt=50e6  Igt=2.1ma    Vgt=.63v     Ton=1u       Toff=25u
+ Idrm=10u
* 90-5-18    Motorola     DL137, Rev 2, 3/89
.ends
*$

.subckt 2N6170          anode gate cathode
* Min and Max parameters
X1 anode gate cathode Scr params:
+ Vdrm=600v  Vrrm=600v    Ih=3.5ma     Vtm=1.5v     Itm=41
+ dVdt=50e6  Igt=2.1ma    Vgt=.63v     Ton=1u       Toff=25u
+ Idrm=10u
* 90-5-18    Motorola     DL137, Rev 2, 3/89
.ends
*$

.subckt 2N6171          anode gate cathode
* Min and Max parameters
X1 anode gate cathode Scr params:
+ Vdrm=100v  Vrrm=100v    Ih=5.2ma     Vtm=1.5v     Itm=69
+ dVdt=50e6  Igt=4ma      Vgt=.69v     Ton=1.5u     Toff=25u
+ Idrm=10u
* 90-5-18    Motorola     DL137, Rev 2, 3/89
.ends
*$

.subckt 2N6172          anode gate cathode
* Min and Max parameters
X1 anode gate cathode Scr params:
+ Vdrm=200v  Vrrm=200v    Ih=5.2ma     Vtm=1.5v     Itm=69
+ dVdt=50e6  Igt=4ma      Vgt=.69v     Ton=1.5u     Toff=25u
+ Idrm=10u
* 90-5-18    Motorola     DL137, Rev 2, 3/89
.ends
*$

.subckt 2N6173          anode gate cathode
* Min and Max parameters
X1 anode gate cathode Scr params:
+ Vdrm=400v  Vrrm=400v    Ih=5.2ma     Vtm=1.5v     Itm=69
+ dVdt=50e6  Igt=4ma      Vgt=.69v     Ton=1.5u     Toff=25u
+ Idrm=10u
* 90-5-18    Motorola     DL137, Rev 2, 3/89
.ends
*$

.subckt 2N6174          anode gate cathode
* Min and Max parameters
X1 anode gate cathode Scr params:
+ Vdrm=600v  Vrrm=600v    Ih=5.2ma     Vtm=1.5v     Itm=69
+ dVdt=50e6  Igt=4ma      Vgt=.69v     Ton=1.5u     Toff=25u
+ Idrm=10u
* 90-5-18    Motorola     DL137, Rev 2, 3/89
.ends
*$

.subckt 2N6394          anode gate cathode
* "Typical" parameters
X1 anode gate cathode Scr params:
+ Vdrm=50v   Vrrm=50v     Ih=6ma       Vtm=1.7v     Itm=24
+ dVdt=5e7   Igt=5ma      Vgt=0.7v     Ton=1u       Toff=15u
+ Idrm=10u
* 90-5-18    Motorola     DL137, Rev 2, 3/89
.ends
*$

.subckt 2N6395          anode gate cathode
* "Typical" parameters
X1 anode gate cathode Scr params:
+ Vdrm=100v  Vrrm=100v    Ih=6ma       Vtm=1.7v     Itm=24
+ dVdt=5e7   Igt=5ma      Vgt=0.7v     Ton=1u       Toff=15u
+ Idrm=10u
* 90-5-18    Motorola     DL137, Rev 2, 3/89
.ends
*$

.subckt 2N6396          anode gate cathode
* "Typical" parameters
X1 anode gate cathode Scr params:
+ Vdrm=200v  Vrrm=200v    Ih=6ma       Vtm=1.7v     Itm=24
+ dVdt=5e7   Igt=5ma      Vgt=0.7v     Ton=1u       Toff=15u
+ Idrm=10u
* 90-5-18    Motorola     DL137, Rev 2, 3/89
.ends
*$

.subckt 2N6397          anode gate cathode
* "Typical" parameters
X1 anode gate cathode Scr params:
+ Vdrm=400v  Vrrm=400v    Ih=6ma       Vtm=1.7v     Itm=24
+ dVdt=5e7   Igt=5ma      Vgt=0.7v     Ton=1u       Toff=15u
+ Idrm=10u
* 90-5-18    Motorola     DL137, Rev 2, 3/89
.ends
*$

.subckt 2N6398          anode gate cathode
* "Typical" parameters
X1 anode gate cathode Scr params:
+ Vdrm=600v  Vrrm=600v    Ih=6ma       Vtm=1.7v     Itm=24
+ dVdt=5e7   Igt=5ma      Vgt=0.7v     Ton=1u       Toff=15u
+ Idrm=10u
* 90-5-18    Motorola     DL137, Rev 2, 3/89
.ends
*$

.subckt 2N6399          anode gate cathode
* "Typical" parameters
X1 anode gate cathode Scr params:
+ Vdrm=800v  Vrrm=800v    Ih=6ma       Vtm=1.7v     Itm=24
+ dVdt=5e7   Igt=5ma      Vgt=0.7v     Ton=1u       Toff=15u
+ Idrm=10u
* 90-5-18    Motorola     DL137, Rev 2, 3/89
.ends
*$

.subckt 2N6400          anode gate cathode
* Min and Max parameters
X1 anode gate cathode Scr params:
+ Vdrm=50v   Vrrm=50v     Ih=6ma       Vtm=1.7v     Itm=32
+ dVdt=50e6  Igt=5ma      Vgt=.7v      Ton=1u       Toff=15u
+ Idrm=10u
* 90-5-18    Motorola     DL137, Rev 2, 3/89
.ends
*$

.subckt 2N6401          anode gate cathode
* Min and Max parameters
X1 anode gate cathode Scr params:
+ Vdrm=100v  Vrrm=100v    Ih=6ma       Vtm=1.7v     Itm=32
+ dVdt=50e6  Igt=5ma      Vgt=.7v      Ton=1u       Toff=15u
+ Idrm=10u
* 90-5-18    Motorola     DL137, Rev 2, 3/89
.ends
*$

.subckt 2N6402         anode gate cathode
* Min and Max parameters
X1 anode gate cathode Scr params:
+ Vdrm=200v  Vrrm=200v    Ih=6ma       Vtm=1.7v     Itm=32
+ dVdt=50e6  Igt=5ma      Vgt=.7v      Ton=1u       Toff=15u
+ Idrm=10u
* 90-5-18    Motorola     DL137, Rev 2, 3/89
.ends
*$

.subckt 2N6403          anode gate cathode
* Min and Max parameters
X1 anode gate cathode Scr params:
+ Vdrm=400v  Vrrm=400v    Ih=6ma       Vtm=1.7v     Itm=32
+ dVdt=50e6  Igt=5ma      Vgt=.7v      Ton=1u       Toff=15u
+ Idrm=10u
* 90-5-18    Motorola     DL137, Rev 2, 3/89
.ends
*$

.subckt 2N6404          anode gate cathode
* Min and Max parameters
X1 anode gate cathode Scr params:
+ Vdrm=600v  Vrrm=600v    Ih=6ma       Vtm=1.7v     Itm=32
+ dVdt=50e6  Igt=5ma      Vgt=.7v      Ton=1u       Toff=15u
+ Idrm=10u
* 90-5-18    Motorola     DL137, Rev 2, 3/89
.ends
*$

.subckt 2N6405          anode gate cathode
* Min and Max parameters
X1 anode gate cathode Scr params:
+ Vdrm=800v  Vrrm=800v    Ih=6ma       Vtm=1.7v     Itm=32
+ dVdt=50e6  Igt=5ma      Vgt=.7v      Ton=1u       Toff=15u
+ Idrm=10u
* 90-5-18    Motorola     DL137, Rev 2, 3/89
.ends
*$

.subckt C228A           anode gate cathode
* Min and Max parameters
X1 anode gate cathode Scr params:
+ Vdrm=100v  Vrrm=100v    Ih=75ma      Vtm=1.9v     Itm=100