.MODEL 2SK170 NJF(VTO=-5.211e-001 BETA=3.683e-002 LAMBDA=4.829e-003 IS=1.000e-009, RD=0.000e+000 RS=0.000e+000 CGS=5.647e-011 CGD=2.562e-011 PB=4.860e+000 FC=0.5)

.MODEL 2SK209BL NJF (BETA=21m BETATCE=-500m CGD=7.762p CGS=14.01p IS=2.613f KF=.4244f LAMBDA=6.15m M=384m PB=375.4m RD=12.194 RS=16.746 VTO=-786.9m VTOTC=2.5m)
.MODEL 2SK209GR5 NJF (BETA=17.136m BETATCE=-500m CGD=7.762p CGS=14.01p IS=2.613f KF=.4244f LAMBDA=2.62m M=384m PB=375.4m RD=1 RS=1 VTO=-550.86m VTOTC=2.5m)
.MODEL 2SK209GR-K NJF (BETA=21.85m CGD=14.58p CGS=14.78p IS=2.613f KF=.014f LAMBDA=6.15m PB=375.4m RD=12.194 RS=13 VTO=-535.9m)

.MODEL 2SK389BL NJF (VTO=-2.5 BETA=6M LAMBDA=1.2M RD=4.95 RS=4.45 IS=6.32F PB=1 FC=.5 CGS=71.2P CGD=18.9P)
.MODEL 2SK389 NJF (VTO=-2 BETA=20M LAMBDA=600U RD=7 RS=6.3 IS=1.58F PB=1 FC=.5 CGS=19.5P CGD=5.5P) 