
*                      Диоды выпpямительные
*  Содержание:
*             2Д103А                          KД102A
*             2Д104А                          KД103A
*             2Д106А                          KД104A
*             2Д203А, Б, В, Г, Д              KД105A
*             2Д212А, Б, В, Г                 КД202Д
*             2Д213А, Б, В, Г                 КД203А
*             2Д220А, Б, В, Г, Д, Е, Ж, И     КД204А
*             2Д419А, Б, В                    КД208А
*             2Д420А                          КД209А
*             2Д503Б                          KD212A
*             2Д510А                          KD213A, Б
*             2Д521А                          КД219А
*             2Д522А, Б                       КД220А
*                                              Д237А, Б, В, Г, Е
*                                             КД2997
*                                             КД503А
*                                             КД509А
*                                             KD510A
*                                             КД512А
*                                             КД513А
*                                             КД520А
*                                             КД521А
*                                             KD522А, Б
*
.model KD102A D (Is=1.669n Rs=9.167 N=1 Xti=3 Eg=1.11 Bv=300 Ibv=100u
+    Cjo=30p Vj=.75 M=.3333 Fc=.5 Tt=10n)
.model D2d103a D (Is=435.9p N=1.676 Rs=1.634 Ikf=3.808  Xti=3 Eg=1.11
+    Cjo=39.43p M=.3333 Vj=.75 Fc=.5 Isr=437.4p Nr=1.958  Bv=100.1
+    Ibv=25.91m Tt=5.771u)
.model D2d104a D (Is=162n N=2.887 Rs=1.031 Ikf=1.82 Xti=3 Eg=1.11
+    Cjo=29.58p M=.3333 Vj=.75 Fc=.5 Isr=34.09E-30 Nr=5.963 Bv=500.2
+    Ibv=.2589 Tt=5.771u)
.model KD105B D (IS=8.426e-11 N=1.11 RS=0.12  CJO=120p TT=1.08e-8
+    M=0.33 VJ=0.71 FC=0.5 BV=400 IBV=1E-11 EG=1.11 XTI=3)
.model D2d106a D (Is=41.54e-27 N=.522 Rs=48.22m Ikf=.3261 Xti=3
+    Eg=1.11  Cjo=334.3p M=.3837 Vj=.75 Fc=.5 Isr=100p Nr=2 Bv=100
+    Ibv=10 Tt=5n)
.model KD202D D (IS=4.012e-9 N=1.56 RS-4.7E-2 CJO=82p TT=3.19e-7
+    M=0.38 VJ=0.75 FC=0.5 BV=200 IBV=1E-10 EG=1.11 XTI=3)
.model D2D203A  D  (Is=161.7e-18  Rs=0  N=1  Xti=3  Eg=1.11  Bv=420
+    Ibv=1.5m Cjo=500p Vj=.75 M=.3333 Fc=.5 Tt=50u)
.model D2D203B  D  (Is=161.7e-18  Rs=0  N=1  Xti=3  Eg=1.11  Bv=560
+    Ibv=1.5m Cjo=500p Vj=.75 M=.3333 Fc=.5 Tt=50u)
.model D2D203V  D  (Is=161.7e-18  Rs=0  N=1  Xti=3  Eg=1.11  Bv=560
+    Ibv=1.5m Cjo=500p Vj=.75 M=.3333 Fc=.5 Tt=50u)
.model D2D203G  D  (Is=161.7e-18  Rs=0  N=1  Xti=3  Eg=1.11  Bv=700
+    Ibv=1.5m Cjo=500p Vj=.75 M=.3333 Fc=.5 Tt=50u)
.model D2D203D  D  (Is=161.7e-18  Rs=0  N=1  Xti=3  Eg=1.11  Bv=700
+    Ibv=1.5m Cjo=500p Vj=.75 M=.3333 Fc=.5 Tt=50u)
.model KD203A D (IS=2.98e-9 N=1.52 RS=9.3E-3 CJO=21.2P TT=9.09e-7
+    M=.28 VJ=0.73 FC=0.5 BV=600 IBV=1e-10 EG=1.11 XTI=3)
.model KD204A D (IS=4.110e-9 N=1.52 RS=0.075 CJO=31.5P TT=1.16e-7
+    M=0.35 VJ=0.68 FC=0.5 BV=400 IBV=1e-10 EG=1.11 XTI=3)
.model KD208A  D (IS=1.81e-10 N=1.31 RS=0.12 CJO=96.3P TT=2.23e-7
+    M=0.38 VJ=0.68 FC=0.5 BV=100 IBV=1e-10 EG=1.11 XTI=3)
.model KD209A  D  (IS=6.22e-11 N=1.23 RS=0.17 CJO=16.2 TT=7.21e-7
+    M=0.35 VJ=0.68 FC=0.5 BV=600 IBV=1e-10 EG=1.11 XTI=3)
.model D2D212A  D  (Is=36.89f Rs=0 N=1 Xti=3 Eg=1.11 Bv=200 Ibv=50u
+    Cjo=21p Vj=.75 M=.3333 Fc=.5 Tt=150n)
.model D2D212B  D  (Is=36.89f Rs=0 N=1 Xti=3 Eg=1.11 Bv=200 Ibv=50u
+    Cjo=21p Vj=.75 M=.3333 Fc=.5 Tt=150n)
.model D2D212V  D  (Is=36.89f Rs=0 N=1 Xti=3 Eg=1.11 Bv=100 Ibv=50u
+    Cjo=20p Vj=.75 M=.3333 Fc=.5 Tt=150n)
.model D2D212G  D  (Is=36.89f Rs=0 N=1 Xti=3 Eg=1.11 Bv=100 Ibv=50u
+    Cjo=20p Vj=.75 M=.3333 Fc=.5 Tt=150n)
.model KD212A  D  (Is=36.89f  Rs=0 N=1 Xti=3 Eg=1.11 Bv=200 Ibv=50u
+    Cjo=21p Vj=.75 M=.3333 Fc=.5 Tt=150n)
.model D2D213A  D  (Is=350.3e-18  Rs=0  N=1  Xti=3  Eg=1.11  Bv=200
+    Ibv=100n Cjo=61p Vj=.75 M=.3333 Fc=.5 Tt=90n)
.model D2D213B  D  (Is=350.3e-18  Rs=0  N=1  Xti=3  Eg=1.11  Bv=200
+    Ibv=100n Cjo=61p Vj=.75 M=.3333 Fc=.5 Tt=90n)
.model D2D213V  D  (Is=350.3e-18  Rs=0  N=1  Xti=3  Eg=1.11  Bv=100
+    Ibv=50n Cjo=61p Vj=.75 M=.3333 Fc=.5 Tt=90n)
.model D2D213G  D  (Is=350.3e-18  Rs=0  N=1  Xti=3  Eg=1.11  Bv=100
+    Ibv=50n Cjo=61p Vj=.75 M=.3333 Fc=.5 Tt=90n)
.model KD213A   D  (Is=350.3e-18  Rs=0  N=1  Xti=3  Eg=1.11  Bv=200
+    Ibv=100n Cjo=61p Vj=.75 M=.3333 Fc=.5 Tt=90n)
.model kd213b  D  (Is=68.84p  Rs=43.52m  N=1  Xti=3  Eg=1.11 Bv=280
+    Ibv=258.6u Cjo=1p Vj=.75 M=.3333 Fc=.5 Tt=50.04n)
.model KD219A D (IS=5.760e-8 N=1.12 RS=3e-3 CJO=63.1P TT=1.23e-9
+    M=0.33 VJ=0.54 FC=0.5 BV=15 IBV=1e-11 EG=1.11 XTI=3)
.model D2D220A  D  (Is=338.5e-21  Rs=0  N=1  Xti=3  Eg=1.11  Bv=400
+    Ibv=45u Cjo=100p Vj=.75 M=.3333 Fc=.5 Tt=400n)
.model D2D220B  D  (Is=338.5e-21  Rs=0  N=1  Xti=3  Eg=1.11  Bv=600
+    Ibv=45u Cjo=100p Vj=.75 M=.3333 Fc=.5 Tt=400n)
.model D2D220V  D  (Is=338.5e-21  Rs=0  N=1  Xti=3  Eg=1.11  Bv=800
+    Ibv=45u Cjo=100p Vj=.75 M=.3333 Fc=.5 Tt=400n)
.model D2D220G  D  (Is=338.5e-21  Rs=0  N=1  Xti=3  Eg=1.11 Bv=1000
+    Ibv=45u Cjo=100p Vj=.75 M=.3333 Fc=.5 Tt=400n)
.model D2D220D  D  (Is=338.5e-21  Rs=0  N=1  Xti=3  Eg=1.11  Bv=400
+    Ibv=45u Cjo=100p Vj=.75 M=.3333 Fc=.5 Tt=700n)
.model D2D220E  D  (Is=338.5e-21  Rs=0  N=1  Xti=3  Eg=1.11  Bv=600
+    Ibv=45u Cjo=100p Vj=.75 M=.3333 Fc=.5 Tt=700n)
.model D2D220J  D  (Is=338.5e-21  Rs=0  N=1  Xti=3  Eg=1.11  Bv=800
+    Ibv=45u Cjo=100p Vj=.75 M=.3333 Fc=.5 Tt=700n)
.model D2D220I  D  (Is=338.5e-21  Rs=0  N=1  Xti=3  Eg=1.11 Bv=1000
+    Ibv=45u Cjo=100p Vj=.75 M=.3333 Fc=.5 Tt=700n)
.model KD220A   D   (IS=1.12e-11   N=1.25   RS=0.071 CJO=164.5p
+    TT=1.23e-9 M=.33 VJ=.65 FC=0.5 BV=400 IBV=1e-11 EG=1.11 XTI=3)
.model D237A  D  (Is=4.85e-18 Rs=0 N=1 Xti=3 Eg=1.11 Bv=200 Ibv=50u
+    Cjo=1p Vj=.75 M=.3333 Fc=.5 Tt=1m)
.model D237B  D  (Is=4.85e-18 Rs=0 N=1 Xti=3 Eg=1.11 Bv=400 Ibv=50u
+    Cjo=1p Vj=.75 M=.3333 Fc=.5 Tt=1m)
.model D237V  D  (Is=1.617-18 Rs=0 N=1 Xti=3 Eg=1.11 Bv=600 Ibv=50u
+    Cjo=1p Vj=.75 M=.3333 Fc=.5 Tt=1m)
.model D237E  D  (Is=4.85E-18 Rs=0 N=1 Xti=3 Eg=1.11 Bv=400 Ibv=50u
+    Cjo=1p Vj=.75 M=.3333 Fc=.5 Tt=1m)
.model D237G  D  (Is=1.85E-18 Rs=0 N=1 Xti=3 Eg=1.11 Bv=200 Ibv=50u
+    Cjo=1p Vj=.75 M=.3333 Fc=.5 Tt=1m)
.model kd2997a  D  (Is=412.8p  Rs=6.772m N=1 Xti=3 Eg=1.11 Bv=280.4
+    Ibv=.2586 Cjo=1p Vj=.75 M=.3333 Fc=.5 Tt=100.1n)
.model D2d419a   D  (Is=583.7n  N=1.499  Rs=6.944  Ikf=44.68  Xti=3
+    Eg=1.11 Cjo=810.5f  M=.5736  Vj=1.553  Fc=.5  Isr=2.423u  Nr=2
+    Bv=30.16 Ibv=.6 Tt=144.3p)
.model D2d419b  D  (Is=583.7n  N=1.499  Rs=6.944  Ikf=44.68   Xti=3
+    Eg=1.11 Cjo=810.5f  M=.5736  Vj=1.553  Fc=.5  Isr=1.674u Nr=2
+    Bv=60.16 Ibv=.6007 Tt=144.3p)
.model D2d419v   D  (Is=583.7n  N=1.499  Rs=6.944  Ikf=44.68  Xti=3
+    Eg=1.11 Cjo=810.5f  M=.5736  Vj=1.553  Fc=.5  Isr=1.263u  Nr=2
+    Bv=100.1 Ibv=.2779 Tt=144.3p)
.model D2d420a  D  (Is=17.75p  N=1.678  Rs=.1305  Ikf=4.539   Xti=3
+    Eg=1.11  Cjo=807.9f M=.1321 Vj=.7477 Fc=.5 Isr=27.93n Nr=41.85
+    Bv=35.17 Ibv=.6487 Tt=72.13n)
.model D2D503B  D  (IS=7.9e-13  RS=2.3  CJO=1.86p M=0.27 TT=7.19n
+    VJ=0.77 BV=50 IBV=1e-11 EG=1.11 FC=0.5 XTI=3 N=1)
.model KD503A  D (IS=7.92e-13 N=1.11 RS=2.3 CJO=1.45p TT=2.19n
+    M=0.27 VJ=0.71 FC=0.5 BV=30 IBV=1e-11 EG=1.11 XTI=3)
.model KD509A  D  (IS=1.14e-12 N=1.12 RS=2.1 CJO=2.15p TT=3.25n
+    M=0.33 VJ=0.71 FC=0.5 BV=50 IBV=1E-11 EG=1.11 XTI=3)
.model D2D510A  D (Is=646.7e-21 Rs=0 N=1 Xti=3 Eg=1.11 Bv=15 Ibv=1u
+    Cjo=1p Vj=.75 M=.3333 Fc=.5 Tt=4p)
.model KD512A  D  (IS=2.120e-15 N=1.0 RS=9.2 CJO=0.85p TT=.961n
+    M=0.25 VJ=0.69 FC=0.5 BV=15 IBV=1e-11 EG=1.11 XTI=3)
.model KD513A  D (IS=5.680e-13 N=1.11 RS=1.6 CJO=1.81p TT=.850n
+    M=0.31 VJ=0.69 FC=0.5 BV=50 IBV=1e-11 EG=1.11 XTI=3)
.model KD520A  D (IS=6.180e-13 N=1.12 RS=6.3 CJO=2.35p TT=1.44n
+    M=0.33 VJ=0.68 FC=0.5 BV=15 IBV=1e-11 EG=1.11 XTI=3)
.model D2D521A  D  (IS=1.15e-13 RS=3.21 CJO=2.25p M=0.26 TT=3.12n
+    VJ=0.68 BV=75 IBV=1e-11 EG=1.11 FC=0.5 XTI=3 N=1)
.model KD521A  D  (IS=1.15e-13  N=1.0  RS=3.21 CJO=2.25p TT=3.12n
+    M=0.26 VJ=0.68 FC=0.5 BV=75 IBV=1e-11 EG=1.11 XTI=3)
.model D2D522A  D  (IS=2.27e-13 RS=1.17 CJO=2.42p M=0.25 TT=2.38n
+    VJ=0.68 BV=50 IBV=1e-11 EG=1.11 FC=0.5 XTI=3 N=1)
.model D2D522B  D (Is=33.85e-21 Rs=0 N=1 Xti=3 Eg=1.11 Bv=50 Ibv=5u
+    Cjo=4p Vj=.75 M=.3333 Fc=.5 Tt=4p)
.model KD522A  D  (IS=2.270e-13  N=1.1  RS=1.17  CJO=1.83p TT=2.38n
+    M=0.25 VJ=0.68 FC=0.5 BV=50 IBV=1e-11 EG=1.11 XTI=3)
.model KD522B  D  (Is=33.85e-21 Rs=0 N=1 Xti=3 Eg=1.11 Bv=30 Ibv=2u
+    Cjo=4p Vj=.75 M=.3333 Fc=.5 Tt=4p)
*
*                          Стабилитроны
*
*              Д814А, Б, В, Г, Д
*              Д815А, Б, В, Г, Д, Е, Ж
*              Д816А, Б, Г, Д
*              Д817А, Б, В, Г
*              Д818Е
*             2С133А                          КС133А
*             2С147А                          КС139А
*             2С168А                          КС147А
*             2С191Г                          КС156А
*             2С211Г                          КС168А
*             2С522А
*             2С527А
*
.model D814A D(IS=.3920e-12 N=1.19 RS=1.25 CJO=41.15p  TT=49.11n
+    M=0.41 VJ=0.73 FC=0.5 BV=8 IBV=0.5u EG=1.11 XTI=3)
.model D814B D(IS=.3920e-12 N=1.19 RS=1.54 CJO=38.39p  TT=58.13n
+    M=0.45 VJ=0.76 FC=0.5 BV=9 IBV=0.5u EG=1.11 XTI=3)
.model D814V D(IS=.5232e-12 N=1.26 RS=2.5  CJO=37.56p  TT=58.34n
+    M=0.43 VJ=0.76 FC=0.5 BV=10 IBV=1u EG=1.11 XTI=3)
.model D814G D(IS=.1067e-12 N=1.12 RS=3.4  CJO=28.08p  TT=68.87n
+    M=0.43 VJ=0.75 FC=0.5 BV=11 IBV=1u EG=1.11 XTI=3)
.model D814D D(IS=.5235e-12 N=1.17 RS=3.8 CJO=29.15Ep  TT=59.96n
+    M=0.41 VJ=0.71 FC=0.5 BV=13 IBV=1u EG=1.11 XTI=3)
.model D815A D(IS=.1221e-11 N=1.67 RS=0.24 CJO=73.15p  TT=389.8n
+    M=0.37 VJ=0.78 FC=0.5 BV=5.6 IBV=5u EG=1.11 XTI=3)
.model D815B D(IS=.4173e-12 N=1.22 RS=0.27 CJO=88.12p TT=236.4n
+    M=0.36 VJ=0.78 FC=0.5 BV=6.8 IBV=5u EG=1.11 XTI=3)
.model D815V D(IS=.5225e-10 N=1.84 RS=0.35 CJO=76.32p TT=245.24n
+    M=0.31 VJ=0.73 FC=0.5 BV=8.2 IBV=5u EG=1.11 XTI=3)
.model D815G D(IS=.9373e-10 N=1.55 RS=0.6 CJO=63.60p  TT=250.97n
+    M=0.38 VJ=0.71 FC=0.5 BV=10 IBV=5u EG=1.11 XTI=3)
.model D815D D(IS=.5227e-10 N=1.46 RS=0.7  CJO=73.31p  TT=217.3n
+    M=0.39 VJ=0.74 FC=0.5 BV=12 IBV=5u EG=1.11 XTI=3)
.model D815E D(IS=.4646e-10 N=1.39 RS=0.9  CJO=72.86p  TT=118.9n
+    M=0.39 VJ=0.78 FC=0.5 BV=15 IBV=5u EG=1.11 XTI=3)
.model D815J D(IS=.1996e-10 N=1.32 RS=1.1  CJO=82.14p  TT=222.9n
+    M=0.42 VJ=0.75 FC=0.5 BV=18 IBV=5u EG=1.11 XTI=3)
.model D816A D(IS=.4599e-11 N=1.25 RS=2.4  CJO=105.9p  TT=213.6n
+    M=0.41 VJ=0.71 FC=0.5 BV=22 IBV=10u EG=1.11 XTI=3)
.model D816B D(IS=.4279e-12 N=1.14  RS=2.8  CJO=133.2p  TT=220.4
+    M=0.41 VJ=0.73 FC=0.5 BV=27 IBV=10u EG=1.11 XTI=3)
.model D816G D(IS=3.337e-12 N=1.23 RS=4.6  CJO=103.5p  TT=203.5n
+    M=0.39 VJ=0.71 FC=0.5 BV=39 IBV=15u EG=1.11 XTI=3)
.model D816D D(IS=1.471e-12 N=1.18 RS=5.6  CJO=82.24p  TT=207.4n
+    M=0.40 VJ=0.70 FC=0.5 BV=47 IBV=15u EG=1.11 XTI=3)
.model D817A D(IS=10.10e-12 N=1.47  RS=12  CJO=57.00p  TT=500.0n
+    M=0.34 VJ=0.80 FC=0.5 BV=56 IBV=20u EG=1.11 XTI=3)
.model D817B  D(IS=12.00e-12  N=1.43  RS=14  CJO=68.00p  TT=500n
+    M=0.35 VJ=0.8 FC=0.5 BV=68 IBV=20u EG=1.11 XTI=3)
.model D817V D(IS=12.22e-12 N=1.28  RS=16  CJO=54.48p  TT=414.1n
+    M=0.43 VJ=0.78 FC=0.5 BV=82 IBV=30u EG=1.11 XTI=3)
.model D817G D(IS=29.34e-12  N=1.27  RS=18  CJO=82.0p  TT=500.0n
+    M=0.38 VJ=0.8 FC=0.5 BV=100 IBV=50u EG=1.11 XTI=3)
.model d818e D(Is=3m Rs=18 N=1 Xti=3  Eg=1.11  Bv=9  Ibv=3m Cjo=1p
+    Vj=.75 M=.3333 Fc=.5 Tt=5n)
.model KS133A D(IS=89.00e-15 N=1.16 RS=25  CJO=72.00p  TT=57.00n
+    M=0.47 VJ=0.80 FC=0.5 BV=3.3 IBV=5u EG=1.11 XTI=3)
.model 2S133A D(IS=193.4e-15 N=1.85 RS=22  CJO=84.51p  TT=46.61n
+    M=0.38 VJ=0.73 FC=0.5 BV=3.3 IBV=5u EG=1.11 XTI=3)
.model KS139A D(IS=400.0e-15 N=1.35 RS=30  CJO=85.00p  TT=72.00n
+    M=0.45 VJ=0.80 FC=0.5 BV=3.9 IBV=5u EG=1.11 XTI=3)
.model KS147A D(IS=500.0e-15 N=1.35 RS=22  CJO=85.00p  TT=75.00n
+    M=0.45 VJ=0.80 FC=0.5 BV=4.7 IBV=5u EG=1.11 XTI=3)
.model 2S147A D(IS=1.236e-12 N=1.87 RS=20.2 CJO=87.60p TT=104.0n
+    M=0.3751 VJ=0.73 FC=0.5 BV=4.7 IBV=5u EG=1.11 XTI=3)
.model KS156A D(IS=3.600e-12 N=1.52 RS=13  CJO=94.00p  TT=160.0n
+    M=0.41 VJ=0.80 FC=0.5 BV=5.6 IBV=5u EG=1.11 XTI=3)
.model KS168A D(IS=7.300e-12 N=1.35 RS=5.8 CJO=62.00p  TT=250.0n
+    M=0.50 VJ=0.80 FC=0.5 BV=6.8 IBV=5u EG=1.11 XTI=3)
.model 2S168A D(IS=7.034e-12 N=1.26 RS=5.8  CJO=0.52p  TT=210.0n
+    M=0.31 VJ=0.75 FC=0.5 BV=6.8 IBV=5u EG=1.11 XTI=3)
.model 2S191G D(IS=47.47e-15 N=1.27  RS=9  CJO=10.69p  TT=4.337n
+    M=0.39 VJ=0.79 FC=0.5 BV=9.1 IBV=1u EG=1.11 XTI=3)
.model 2S211G D(IS=418.2e-15 N=1.39  RS=9  CJO=10.17p  TT=7.934n
+    M=0.41 VJ=0.69 FC=0.5 BV=11 IBV=3u EG=1.11 XTI=3)
.model 2S522A D(IS=41.68e-15 N=1.06  RS=2  CJO=57.24p  TT=32.94n
+    M=0.39 VJ=0.72 FC=0.5 BV=22 IBV=5u EG=1.11 XTI=3)
.model 2S527A D(IS=25.00e-15 N=1.11  RS=4  CJO=47.42p  TT=256.6n
+    M=0.39 VJ=0.68 FC=0.5 BV=27 IBV=5u EG=1.11 XTI=3)
*
* The parameters in this model library were derived from the data sheets for
* each part.  Most parts were characterize using the Parts option.

.model D1N914	D(Is=0.1p Rs=16 CJO=2p Tt=12n Bv=100 Ibv=0.1p)
*		85-??-??	Original library

.model D1N914A	D(Is=0.1p Rs=4 CJO=2p Tt=12n Bv=100 Ibv=0.1p)
*		85-??-??	Original library

.model D1N914B	D(Is=0.1p Rs=2 CJO=2p Tt=12n Bv=100 Ibv=0.1p)
*		85-??-??	Original library

.model D1N916	D(Is=0.1p Rs=8 CJO=1p Tt=12n Bv=100 Ibv=0.1p)
*		85-??-??	Original library

.model D1N916A	D(Is=0.1p Rs=4 CJO=1p Tt=12n Bv=100 Ibv=0.1p)
*		85-??-??	Original library

.model D1N916B	D(Is=0.1p Rs=4 CJO=1p Tt=12n Bv=100 Ibv=0.1p)
*		85-??-??	Original library

.model D1N3063	D(Is=0.1p Rs=4 CJO=1p Tt=8n Bv=100 Ibv=0.1p)
*		85-??-??	Original library

.model D1N3064	D(Is=0.1p Rs=4 CJO=1p Tt=8n Bv=100 Ibv=0.1p)
*		85-??-??	Original library

.model D1N3491	D(Is=68.65f Rs=3.786m Ikf=1.774 N=1 Xti=2 Eg=1.11 Cjo=1.457n
+		M=.9735 Vj=.75 Fc=.5 Isr=11.02u Nr=2 Tt=6.059u)
*		Motorola	pid=1N3491	case=DO21
*		88-08-24 rmn

.model D1N3492	D(Is=68.65f Rs=3.786m Ikf=1.774 N=1 Xti=2 Eg=1.11 Cjo=1.457n
+		M=.9735 Vj=.75 Fc=.5 Isr=5.651u Nr=2 Tt=6.059u)
*		Motorola	pid=1N3491	case=DO21
*		88-08-24 rmn

.model D1N3493	D(Is=68.65f Rs=3.786m Ikf=1.774 N=1 Xti=2 Eg=1.11 Cjo=1.457n
+		M=.9735 Vj=.75 Fc=.5 Isr=2.888u Nr=2 Tt=6.059u)
*		Motorola	pid=1N3491	case=DO21
*		88-08-24 rmn

.model D1N3494	D(Is=68.65f Rs=3.786m Ikf=1.774 N=1 Xti=2 Eg=1.11 Cjo=1.457n
+		M=.9735 Vj=.75 Fc=.5 Isr=1.949u Nr=2 Tt=6.059u)
*		Motorola	pid=1N3491	case=DO21
*		88-08-24 rmn

.model D1N3495	D(Is=68.65f Rs=3.786m Ikf=1.774 N=1 Xti=2 Eg=1.11 Cjo=1.457n
+		M=.9735 Vj=.75 Fc=.5 Isr=1.474u Nr=2 Tt=6.059u)
*		Motorola	pid=1N3491	case=DO21
*		88-08-24 rmn

.model D1N3604	D(Is=0.1p Rs=3 CJO=1p Tt=3n Bv=100 Ibv=0.1p)
*		85-??-??	Original library

.model D1N3605	D(Is=0.1p Rs=6 CJO=1p Tt=3n Bv=70 Ibv=0.1p)
*		85-??-??	Original library

.model D1N3606	D(Is=0.1p Rs=6 CJO=1p Tt=3n Bv=100 Ibv=0.1p)
*		85-??-??	Original library

.model D1N3879	D(Is=1.058E-18 Rs=11.56m Ikf=2.349 N=1 Xti=14 Eg=1.11 Cjo=113.2p
+		M=.2834 Vj=.75 Fc=.5 Isr=908.6n Nr=2 Tt=369.9n)
*		Motorola	pid=1N3879	case=DO4
*		88-08-25 rmn

.model D1N3880	D(Is=1.058E-18 Rs=11.56m Ikf=2.349 N=1 Xti=14 Eg=1.11 Cjo=113.2p
+		M=.2834 Vj=.75 Fc=.5 Isr=798n Nr=2 Tt=369.9n)
*		Motorola	pid=1N3879	case=DO4
*		88-08-25 rmn

.model D1N3881	D(Is=1.058E-18 Rs=11.56m Ikf=2.349 N=1 Xti=14 Eg=1.11 Cjo=113.2p
+		M=.2834 Vj=.75 Fc=.5 Isr=820.5n Nr=2 Tt=369.9n)
*		Motorola	pid=1N3879	case=DO4
*		88-08-25 rmn

.model D1N3882	D(Is=1.058E-18 Rs=11.56m Ikf=2.349 N=1 Xti=14 Eg=1.11 Cjo=113.2p
+		M=.2834 Vj=.75 Fc=.5 Isr=887.2n Nr=2 Tt=369.9n)
*		Motorola	pid=1N3879	case=DO4
*		88-08-25 rmn

.model D1N3883	D(Is=1.058E-18 Rs=11.56m Ikf=2.349 N=1 Xti=14 Eg=1.11 Cjo=113.2p
+		M=.2834 Vj=.75 Fc=.5 Isr=994.9n Nr=2 Tt=369.9n)
*		Motorola	pid=1N3879	case=DO4
*		88-08-25 rmn

.model D1N3889	D(Is=15.03f Rs=9.606m Ikf=.2003 N=1 Xti=3 Eg=1.11 Cjo=117.8p
+		M=.2976 Vj=.75 Fc=.5 Isr=770.3n Nr=2 Tt=369.9n)
*		Motorola	pid=1N3889	case=DO4
*		88-08-25 rmn

.model D1N3890	D(Is=15.03f Rs=9.606m Ikf=.2003 N=1 Xti=3 Eg=1.11 Cjo=117.8p
+		M=.2976 Vj=.75 Fc=.5 Isr=684.1n Nr=2 Tt=369.9n)
*		Motorola	pid=1N3889	case=DO4
*		88-08-25 rmn

.model D1N3891	D(Is=15.03f Rs=9.606m Ikf=.2003 N=1 Xti=3 Eg=1.11 Cjo=117.8p
+		M=.2976 Vj=.75 Fc=.5 Isr=672.7n Nr=2 Tt=369.9n)
*		Motorola	pid=1N3889	case=DO4
*		88-08-25 rmn

.model D1N3892	D(Is=15.03f Rs=9.606m Ikf=.2003 N=1 Xti=3 Eg=1.11 Cjo=117.8p
+		M=.2976 Vj=.75 Fc=.5 Isr=705.6n Nr=2 Tt=369.9n)
*		Motorola	pid=1N3889	case=DO4
*		88-08-25 rmn

.model D1N3893	D(Is=15.03f Rs=9.606m Ikf=.2003 N=1 Xti=3 Eg=1.11 Cjo=117.8p
+		M=.2976 Vj=.75 Fc=.5 Isr=809.8n Nr=2 Tt=369.9n)
*		Motorola	pid=1N3889	case=DO4
*		88-08-25 rmn

.model D1N3899	D(Is=5.62f Rs=6.414m Ikf=9.692 N=1 Xti=2 Eg=1.11 Cjo=144.1p
+		M=.2272 Vj=.75 Fc=.5 Isr=1.036u Nr=2 Tt=521.4n)
*		Motorola	pid=1N3899	case=DO5
*		88-08-30 rmn

.model D1N3900	D(Is=5.62f Rs=6.414m Ikf=9.692 N=1 Xti=2 Eg=1.11 Cjo=144.1p
+		M=.2272 Vj=.75 Fc=.5 Isr=985.4n Nr=2 Tt=521.4n)
*		Motorola	pid=1N3899	case=DO5
*		88-08-30 rmn

.model D1N3901	D(Is=5.62f Rs=6.414m Ikf=9.692 N=1 Xti=2 Eg=1.11 Cjo=144.1p
+		M=.2272 Vj=.75 Fc=.5 Isr=997n Nr=2 Tt=521.4n)
*		Motorola	pid=1N3899	case=DO5
*		88-08-30 rmn

.model D1N3902	D(Is=5.62f Rs=6.414m Ikf=9.692 N=1 Xti=2 Eg=1.11 Cjo=144.1p
+		M=.2272 Vj=.75 Fc=.5 Isr=1.076u Nr=2 Tt=521.4n)
*		Motorola	pid=1N3899	case=DO5
*		88-08-30 rmn

.model D1N3903	D(Is=5.62f Rs=6.414m Ikf=9.692 N=1 Xti=2 Eg=1.11 Cjo=144.1p
+		M=.2272 Vj=.75 Fc=.5 Isr=1.248u Nr=2 Tt=521.4n)
*		Motorola	pid=1N3899	case=DO5
*		88-08-30 rmn

.model D1N3909	D(Is=20.07f Rs=3.842m Ikf=2.963 N=1 Xti=3 Eg=1.11 Cjo=111.7p
+		M=.2683 Vj=.75 Fc=.5 Isr=887.6n Nr=2 Tt=369.9n)
*		Motorola	pid=1N3909	case=DO5
*		88-08-30 rmn

.model D1N3910	D(Is=20.07f Rs=3.842m Ikf=2.963 N=1 Xti=3 Eg=1.11 Cjo=111.7p
+		M=.2683 Vj=.75 Fc=.5 Isr=805.6n Nr=2 Tt=369.9n)
*		Motorola	pid=1N3909	case=DO5
*		88-08-30 rmn

.model D1N3911	D(Is=20.07f Rs=3.842m Ikf=2.963 N=1 Xti=3 Eg=1.11 Cjo=111.7p
+		M=.2683 Vj=.75 Fc=.5 Isr=825.8n Nr=2 Tt=369.9n)
*		Motorola	pid=1N3909	case=DO5
*		88-08-30 rmn

.model D1N3912	D(Is=20.07f Rs=3.842m Ikf=2.963 N=1 Xti=3 Eg=1.11 Cjo=111.7p
+		M=.2683 Vj=.75 Fc=.5 Isr=851.1n Nr=2 Tt=369.9n)
*		Motorola	pid=1N3909	case=DO5
*		88-08-30 rmn

.model D1N3913	D(Is=20.07f Rs=3.842m Ikf=2.963 N=1 Xti=3 Eg=1.11 Cjo=111.7p
+		M=.2683 Vj=.75 Fc=.5 Isr=973.4n Nr=2 Tt=369.9n)
*		Motorola	pid=1N3909	case=DO5
*		88-08-30 rmn

.model D1N4001	D(Is=14.11n N=1.984 Rs=33.89m Ikf=94.81 Xti=3 Eg=1.11
+		Cjo=25.89p M=.44 Vj=.3245 Fc=.5 Bv=75 Ibv=10u Tt=5.7u)
*		Motorola
*		Semiconductor Databook (mid 1970s)
*		03 Jun 91	pwt	creation

.model D1N4002 ako:D1N4001 D(Bv=150)	; use non-rep. peak voltage

.model D1N4003 ako:D1N4001 D(Bv=300)	; use non-rep. peak voltage

.model D1N4004 ako:D1N4001 D(Bv=600)	; use non-rep. peak voltage

.model D1N4005 ako:D1N4001 D(Bv=900)	; use non-rep. peak voltage

.model D1N4006 ako:D1N4001 D(Bv=1200)	; use non-rep. peak voltage

.model D1N4007 ako:D1N4001 D(Bv=1500)	; use non-rep. peak voltage

.model D1N4009	D(Is=0.1p Rs=4 CJO=2p Tt=3n Bv=60 Ibv=0.1p)
*		85-??-??	Original library

.model D1N4148	D(Is=0.1p Rs=16 CJO=2p Tt=12n Bv=100 Ibv=0.1p)
*		85-??-??	Original library

.model D1N4149	D(Is=0.1p Rs=8 CJO=1p Tt=12n Bv=100 Ibv=0.1p)
*		85-??-??	Original library

.model D1N4150	D(Is=10E-15 Rs=1.0 CJO=1.3p Tt=12n Bv=70 Ibv=0.1p)
*		85-??-??	Original library

.model D1N4151	D(Is=0.1p Rs=3 CJO=1p Tt=3n Bv=100 Ibv=0.1p)
*		85-??-??	Original library

.model D1N4152	D(Is=0.1p Rs=6 CJO=1p Tt=3n Bv=70 Ibv=0.1p)
*		85-??-??	Original library

.model D1N4153	D(Is=0.1p Rs=6 CJO=1p Tt=3n Bv=100 Ibv=0.1p)
*		85-??-??	Original library

.model D1N4154	D(Is=0.1p Rs=4 CJO=2p Tt=3n Bv=60 Ibv=0.1p)
*		85-??-??	Original library

.model D1N4305	D(Is=0.1p Rs=4 CJO=1p Tt=8n Bv=100 Ibv=0.1p)
*		85-??-??	Original library

.model D1N4444	D(Is=0.1p Rs=2 CJO=1p Tt=12n Bv=100 Ibv=0.1p)
*		85-??-??	Original library

.model D1N4446	D(Is=0.1p Rs=4 CJO=2p Tt=12n Bv=100 Ibv=0.1p)
*		85-??-??	Original library

.model D1N4447	D(Is=0.1p Rs=4 CJO=1p Tt=12n Bv=100 Ibv=0.1p)
*		85-??-??	Original library

.model D1N4448	D(Is=0.1p Rs=2 CJO=2p Tt=12n Bv=100 Ibv=0.1p)
*		85-??-??	Original library

.model D1N4449	D(Is=0.1p Rs=4 CJO=1p Tt=12n Bv=100 Ibv=0.1p)
*		85-??-??	Original library

.model D1N4454	D(Is=0.1p Rs=4 CJO=1p Tt=8n Bv=100 Ibv=0.1p)
*		85-??-??	Original library

.model D1N4531	D(Is=0.1p Rs=16 CJO=2p Tt=12n Bv=100 Ibv=0.1p)
*		85-??-??	Original library

.model D1N4532	D(Is=0.1p Rs=4 CJO=1p Tt=8n Bv=100 Ibv=0.1p)
*		85-??-??	Original library

.model D1N4533	D(Is=0.1p Rs=6 CJO=1p Tt=3n Bv=70 Ibv=0.1p)
*		85-??-??	Original library

.model D1N4534	D(Is=0.1p Rs=6 CJO=1p Tt=3n Bv=100 Ibv=0.1p)
*		85-??-??	Original library

.model D1N4536	D(Is=0.1p Rs=4 CJO=2p Tt=3n Bv=60 Ibv=0.1p)
*		85-??-??	Original library

.model D1N4933	D(Is=7.303f Rs=39.41m Ikf=8.427m N=1 Xti=3 Eg=1.11 Cjo=28.09p
+		M=.4422 Vj=.75 Fc=.5 Isr=77.55n Nr=2 Tt=53.73n)
*		Motorola	pid=1N4933	case=59-04
*		88-09-01 rmn
*		90-01-09 pwt	update Tt: Trr=120ns, If=10A, Ir=1.2A, Rl=4

.model D1N4934	D(Is=7.303f Rs=39.41m Ikf=8.427m N=1 Xti=3 Eg=1.11 Cjo=28.09p
+		M=.4422 Vj=.75 Fc=.5 Isr=59.55n Nr=2 Tt=53.73n)
*		Motorola	pid=1N4933	case=59-04
*		88-09-01 rmn
*		90-01-09 pwt	update Tt: Trr=120ns, If=10A, Ir=1.2A, Rl=4

.model D1N4935	D(Is=7.303f Rs=39.41m Ikf=8.427m N=1 Xti=3 Eg=1.11 Cjo=28.09p
+		M=.4422 Vj=.75 Fc=.5 Isr=50.66n Nr=2 Tt=53.73n)
*		Motorola	pid=1N4933	case=59-04
*		88-09-01 rmn
*		90-01-09 pwt	update Tt: Trr=120ns, If=10A, Ir=1.2A, Rl=4

.model D1N4936	D(Is=7.303f Rs=39.41m Ikf=8.427m N=1 Xti=3 Eg=1.11 Cjo=28.09p
+		M=.4422 Vj=.75 Fc=.5 Isr=47.26n Nr=2 Tt=53.73n)
*		Motorola	pid=1N4933	case=59-04
*		88-09-01 rmn
*		90-01-09 pwt	update Tt: Trr=120ns, If=10A, Ir=1.2A, Rl=4

.model D1N4937	D(Is=7.303f Rs=39.41m Ikf=8.427m N=1 Xti=3 Eg=1.11 Cjo=28.09p
+		M=.4422 Vj=.75 Fc=.5 Isr=49.4n Nr=2 Tt=53.73n)
*		Motorola	pid=1N4933	case=59-04
*		88-09-01 rmn
*		90-01-09 pwt	update Tt: Trr=120ns, If=10A, Ir=1.2A, Rl=4

.model D1N4938	D(Is=0.1p Rs=2 CJO=2.5p Tt=35n Bv=300 Ibv=0.1p)
*		85-??-??	Original library

.model D1N5391	D(Is=127.2f Rs=41.78m Ikf=4.315m N=1 Xti=3 Eg=1.11 Cjo=47.97p
+		M=.4547 Vj=.75 Fc=.5 Isr=36.79u Nr=2 Tt=5.049u)
*		Motorola	pid=1N5391	case=59-04/DO15
*		88-09-07 rmn

.model D1N5392	D(Is=127.2f Rs=41.78m Ikf=4.315m N=1 Xti=3 Eg=1.11 Cjo=47.97p
+		M=.4547 Vj=.75 Fc=.5 Isr=26.93u Nr=2 Tt=5.049u)
*		Motorola	pid=1N5391	case=59-04/DO15
*		88-09-07 rmn

.model D1N5393	D(Is=127.2f Rs=41.78m Ikf=4.315m N=1 Xti=3 Eg=1.11 Cjo=47.97p
+		M=.4547 Vj=.75 Fc=.5 Isr=19.69u Nr=2 Tt=5.049u)
*		Motorola	pid=1N5391	case=59-04/DO15
*		88-09-07 rmn

.model D1N5395	D(Is=127.2f Rs=41.78m Ikf=4.315m N=1 Xti=3 Eg=1.11 Cjo=47.97p
+		M=.4547 Vj=.75 Fc=.5 Isr=14.38u Nr=2 Tt=5.049u)
*		Motorola	pid=1N5391	case=59-04/DO15
*		88-09-07 rmn

.model D1N5397	D(Is=127.2f Rs=41.78m Ikf=4.315m N=1 Xti=3 Eg=1.11 Cjo=47.97p
+		M=.4547 Vj=.75 Fc=.5 Isr=11.96u Nr=2 Tt=5.049u)
*		Motorola	pid=1N5391	case=59-04/DO15
*		88-09-07 rmn

.model D1N5398	D(Is=127.2f Rs=41.78m Ikf=4.315m N=1 Xti=3 Eg=1.11 Cjo=34.79p
+		M=.4399 Vj=.75 Fc=.5 Isr=10.49u Nr=2 Tt=7.213u)
*		Motorola	pid=1N5391	case=59-04/DO15
*		88-09-12 rmn

.model D1N5399	D(Is=127.2f Rs=41.78m Ikf=4.315m N=1 Xti=3 Eg=1.11 Cjo=34.79p
+		M=.4399 Vj=.75 Fc=.5 Isr=10.55u Nr=2 Tt=7.213u)
*		Motorola	pid=1N5391	case=59-04/DO15
*		88-09-12 rmn

.model D1N5400	D(Is=11.5f Rs=8.254m Ikf=3.87 N=1 Xti=3 Eg=1.11 Cjo=130.4p
+		M=.3758 Vj=.75 Fc=.5 Isr=102.6u Nr=2)
*		Motorola	pid=1N5400	case=267-01
*		88-09-12 rmn

.model D1N5401	D(Is=11.5f Rs=8.254m Ikf=3.87 N=1 Xti=3 Eg=1.11 Cjo=130.4p
+		M=.3758 Vj=.75 Fc=.5 Isr=79.29u Nr=2)
*		Motorola	pid=1N5400	case=267-01
*		88-09-12 rmn

.model D1N5402	D(Is=11.5f Rs=8.254m Ikf=3.87 N=1 Xti=3 Eg=1.11 Cjo=130.4p
+		M=.3758 Vj=.75 Fc=.5 Isr=61.19u Nr=2)
*		Motorola	pid=1N5400	case=267-01
*		88-09-12 rmn

.model D1N5404	D(Is=11.5f Rs=8.254m Ikf=3.87 N=1 Xti=3 Eg=1.11 Cjo=130.4p
+		M=.3758 Vj=.75 Fc=.5 Isr=47.19u Nr=2)
*		Motorola	pid=1N5400	case=267-01
*		88-09-12 rmn

.model D1N5406	D(Is=11.5f Rs=8.254m Ikf=3.87 N=1 Xti=3 Eg=1.11 Cjo=130.4p
+		M=.3758 Vj=.75 Fc=.5 Isr=40.53u Nr=2)
*		Motorola	pid=1N5400	case=267-01
*		88-09-12 rmn

.model D1N5711	D(Is=10.58n Rs=32.41 N=1 Xti=5 Eg=.7 Bv=70 Ibv=10u Cjo=2p
+		Vj=.75 M=.3333 Fc=.5 Tt=144.3p)
*		85-??-??	Original library

.model D1N5712	D(Is=432.8p Rs=12.15 N=1 Xti=5 Eg=.7 Bv=20 Ibv=10u Cjo=1.2p
+		Vj=.75 M=.3333 Fc=.5 Tt=144.3p)
*		85-??-??	Original library

.model D1N5817	D(Is=2.835u Rs=47.12m Ikf=.3227 N=1 Xti=0 Eg=1.11 Cjo=472.4p
+		M=.6215 Vj=.75 Fc=.5 Isr=37.75u Nr=2)
*		Motorola	pid=1N5817	case=59-04
*		88-09-12 rmn

.model D1N5818	D(Is=2.835u Rs=47.12m Ikf=.3227 N=1 Xti=0 Eg=1.11 Cjo=359.3p
+		M=.6513 Vj=.75 Fc=.5 Isr=26.46u Nr=2)
*		Motorola	pid=1N5817	case=59-04
*		88-09-12 rmn

.model D1N5819	D(Is=2.835u Rs=47.12m Ikf=.3227 N=1 Xti=0 Eg=1.11 Cjo=302.5p
+		M=.7206 Vj=.75 Fc=.5 Isr=16.98u Nr=2)
*		Motorola	pid=1N5817	case=59-04
*		88-09-12 rmn

.model D1N5820	D(Is=8.425u Rs=34.63m Ikf=2.37 N=1 Xti=0 Eg=1.11 Cjo=1.288n
+		M=.5324 Vj=.75 Fc=.5 Isr=58.32u Nr=2)
*		Motorola	pid=1N5820	case=267-01
*		88-09-13 rmn

.model D1N5821	D(Is=8.425u Rs=34.63m Ikf=2.37 N=1 Xti=0 Eg=1.11 Cjo=1.132n
+		M=.6043 Vj=.75 Fc=.5 Isr=31.98u Nr=2)
*		Motorola	pid=1N5820	case=267-01
*		88-09-13 rmn

.model D1N5822	D(Is=8.425u Rs=34.63m Ikf=2.37 N=1 Xti=0 Eg=1.11 Cjo=1.032n
+		M=.6736 Vj=.75 Fc=.5 Isr=9.599u Nr=2)
*		Motorola	pid=1N5820	case=267-01
*		88-09-13 rmn

.model D1N5823	D(Is=40.53u Rs=4.338m Ikf=58.4 N=1 Xti=0 Eg=1.11 Cjo=2.224n
+		M=.465 Vj=.75 Fc=.5 Isr=845.5u Nr=2)
*		Motorola	pid=1N5823	case=60-01
*		88-09-13 rmn

.model D1N5824	D(Is=40.53u Rs=4.338m Ikf=58.4 N=1 Xti=0 Eg=1.11 Cjo=1.782n
+		M=.4666 Vj=.75 Fc=.5 Isr=699.9u Nr=2)
*		Motorola	pid=1N5823	case=60-01
*		88-09-13 rmn

.model D1N5825	D(Is=40.53u Rs=4.338m Ikf=58.4 N=1 Xti=0 Eg=1.11 Cjo=1.537n
+		M=.4545 Vj=.75 Fc=.5 Isr=673.4u Nr=2)
*		Motorola	pid=1N5823	case=60-01
*		88-09-13 rmn

.model D1N5826	D(Is=40.53u Rs=4.338m Ikf=58.4 N=1 Xti=0 Eg=1.11 Cjo=2.248n
+		M=.465 Vj=.75 Fc=.5 Isr=845.5u Nr=2)
*		Motorola	pid=1N5826	case=DO4
*		88-09-13 rmn

.model D1N5827	D(Is=40.53u Rs=4.338m Ikf=58.4 N=1 Xti=0 Eg=1.11 Cjo=1.814n
+		M=.468 Vj=.75 Fc=.5 Isr=696.4u Nr=2)
*		Motorola	pid=1N5826	case=DO4
*		88-09-13 rmn

.model D1N5828	D(Is=40.53u Rs=4.338m Ikf=58.4 N=1 Xti=0 Eg=1.11 Cjo=1.541n
+		M=.4553 Vj=.75 Fc=.5 Isr=666.5u Nr=2)
*		Motorola	pid=1N5826	case=DO4
*		88-09-13 rmn

.model D1N5829	D(Is=89.43u Rs=3.991m Ikf=163.5 N=1 Xti=0 Eg=1.11 Cjo=5.046n
+		M=.5192 Vj=.75 Fc=.5 Isr=1.5m Nr=2)
*		Motorola	pid=1N5829	case=DO4
*		88-09-13 rmn

.model D1N5830	D(Is=89.43u Rs=3.991m Ikf=163.5 N=1 Xti=0 Eg=1.11 Cjo=4.091n
+		M=.5169 Vj=.75 Fc=.5 Isr=1.175m Nr=2)
*		Motorola	pid=1N5829	case=DO4
*		88-09-13 rmn

.model D1N5831	D(Is=89.43u Rs=3.991m Ikf=163.5 N=1 Xti=0 Eg=1.11 Cjo=3.488n
+		M=.5044 Vj=.75 Fc=.5 Isr=1.188m Nr=2)
*		Motorola	pid=1N5829	case=DO4
*		88-09-13 rmn

.model D1N5832	D(Is=89.43u Rs=3.991m Ikf=163.5 N=1 Xti=3 Eg=1.11 Cjo=5.046n
+		M=.5192 Vj=.75 Fc=.5 Isr=1.5m Nr=2)
*		Motorola	pid=1N5832	case=257-01
*		88-09-13 rmn

.model D1N5833	D(Is=89.43u Rs=3.991m Ikf=163.5 N=1 Xti=3 Eg=1.11 Cjo=4.091n
+		M=.5169 Vj=.75 Fc=.5 Isr=1.175m Nr=2)
*		Motorola	pid=1N5832	case=257-01
*		88-09-13 rmn

.model D1N5834	D(Is=89.43u Rs=3.991m Ikf=163.5 N=1 Xti=3 Eg=1.11 Cjo=3.488n
+		M=.5044 Vj=.75 Fc=.5 Isr=1.188m Nr=2)
*		Motorola	pid=1N5832	case=257-01
*		88-09-13 rmn

.model D1N6095	D(Is=1.133u Rs=2.964m Ikf=4.886 N=1 Xti=0 Eg=1.11 Cjo=2.139n
+		M=.4916 Vj=.75 Fc=.5 Isr=4.409u Nr=2)
*		Motorola	pid=1N6095	case=DO4
*		88-09-13 rmn

.model D1N6096	D(Is=1.133u Rs=2.964m Ikf=4.886 N=1 Xti=0 Eg=1.11 Cjo=2.139n
+		M=.4916 Vj=.75 Fc=.5 Isr=6.645u Nr=2)
*		Motorola	pid=1N6095	case=DO4
*		88-09-13 rmn

.model D1N6097	D(Is=793.4n Rs=3.036m Ikf=8.242 N=1 Xti=0 Eg=1.11 Cjo=4.498n
+		M=.478 Vj=.75 Fc=.5 Isr=16.81u Nr=2)
*		Motorola	pid=1N6097	case=DO5
*		88-09-15 rmn

.model D1N6098	D(Is=793.4n Rs=3.036m Ikf=8.242 N=1 Xti=0 Eg=1.11 Cjo=4.498n
+		M=.478 Vj=.75 Fc=.5 Isr=29.51u Nr=2)
*		Motorola	pid=1N6097	case=DO5
*		88-09-15 rmn

.model MBD101	D(Is=192.1p Rs=.1 Ikf=0 N=1 Xti=3 Eg=1.11 Cjo=893.8f M=98.29m
+		Vj=.75 Fc=.5 Isr=16.91n Nr=2 Bv=5 Ibv=10u)
*		Motorola	pid=MBD101	case=182-03
*		88-09-22 bam	creation

.model MBD201	D(Is=1.684p Rs=.1 Ikf=0 N=1 Xti=3 Eg=1.11 Cjo=2.034p M=.2771
+		Vj=.75 Fc=.5 Isr=4.301n Nr=2 Bv=20 Ibv=10u)
*		Motorola	pid=MBD201	case=182-03
*		88-09-22 bam	creation

.model MBD301	D(Is=1.684p Rs=.1 Ikf=0 N=1 Xti=3 Eg=1.11 Cjo=2.034p M=.2771
+		Vj=.75 Fc=.5 Isr=4.879n Nr=2 Bv=30 Ibv=10u)
*		Motorola	pid=MBD201	case=182-03
*		88-09-22 bam	creation

.model MBD501	D(Is=276.7E-18 Rs=.1 Ikf=0 N=1 Xti=3 Eg=1.11 Cjo=1.778p M=.3694
+		Vj=.75 Fc=.5 Isr=2.031n Nr=2 Bv=50 Ibv=10u)
*		Motorola	pid=MBD501	case=TO92
*		88-09-22 bam	creation

.model MBD701	D(Is=276.7E-18 Rs=.1 Ikf=0 N=1 Xti=3 Eg=1.11 Cjo=1.778p M=.3694
+		Vj=.75 Fc=.5 Isr=2.573n Nr=2 Bv=70 Ibv=10u)
*		Motorola	pid=MBD501	case=TO92
*		88-09-22 bam	creation

.model MBR030	D(Is=12.29n Rs=.102 Ikf=15.89m N=1 Xti=0 Eg=1.11 Cjo=90p
+		M=.1112 Vj=.75 Fc=.5 Isr=1.977u Nr=2)
*		Motorola	pid=MBR030	case=DO35
*		88-09-15 rmn

.model MBR040	D(Is=12.29n Rs=.102 Ikf=15.89m N=1 Xti=0 Eg=1.11 Cjo=90p
+		M=.1112 Vj=.75 Fc=.5 Isr=1.916u Nr=2)
*		Motorola	pid=MBR030	case=DO35
*		88-09-15 rmn

.model MBR115P	D(Is=2.835u Rs=47.12m Ikf=.3227 N=1 Xti=0 Eg=1.11 Cjo=472.4p
+		M=.6215 Vj=.75 Fc=.5 Isr=37.26u Nr=2)
*		Motorola	pid=1N5817	case=59-04
*		88-09-12 rmn

.model MBR120P	D(Is=2.835u Rs=47.12m Ikf=.3227 N=1 Xti=0 Eg=1.11 Cjo=472.4p
+		M=.6215 Vj=.75 Fc=.5 Isr=37.75u Nr=2)
*		Motorola	pid=1N5817	case=59-04
*		88-09-12 rmn
