* Library of "Made in Europe" semiconductor devices

* Copyright 1992 by MicroSim Corporation
*   Neither this library nor any part may be copied without the express
*   written consent of MicroSim Corporation

* $Revision:   1.0  $

* The parameters in this model library were derived from the data sheets for
* each part.  Each part was characterize using Parts.
*
* There are three sections in this file:
* - diodes,
* - small-signal transistors, and
* - power transistors.

*------------------------------------------------------------------------------
* Silicon planar epitaxial / planar Diodes
* contents: SIEMENS Discrete Semiconductors for Surface Mounting 87/88
* contents: PHILIPS Semiconductors Book S1 1986
* contents: TELEFUNKEN electronic Diodes Data book 1988 

.model D1N4148  D(Is=2.682n N=1.836 Rs=.5664 Ikf=44.17m Xti=3 Eg=1.11 Cjo=4p
+               M=.3333 Vj=.5 Fc=.5 Isr=1.565n Nr=2 Bv=100 Ibv=100u Tt=11.54n)
*		TELEFUNKEN	pid=d1n4148	case=DO35
*		91-08-20 dsq

.model D1N4149  D(Is=2.682n N=1.836 Rs=.5664 Ikf=44.17m Xti=3 Eg=1.11 Cjo=2p
+               M=.3333 Vj=.5 Fc=.5 Isr=1.565n Nr=2 Bv=100 Ibv=100u Tt=11.54n)
*		TELEFUNKEN	pid=d1n4149	case=DO35
*		91-08-20 dsq

.model D1N4151  D(Is=2.2n N=1.768 Rs=.5927 Ikf=8.512m Xti=3 Eg=1.11 Cjo=1.725p
+               M=88.82m Vj=.5 Fc=.5 Isr=7.832n Nr=2 Bv=75 Ibv=5u Tt=5.771n)
*		TELEFUNKEN	pid=d1n4151	case=DO35
*		91-08-20 dsq

.model D1N4154  D(Is=153.4p N=1.487 Rs=.6329 Ikf=3.53m Xti=3 Eg=1.11 Cjo=2.251p
+               M=.1575 Vj=.5 Fc=.5 Isr=4.763n Nr=2 Bv=35 Ibv=5u Tt=5.771n)
*		TELEFUNKEN	pid=d1n4154	case=DO35
*		91-08-20 dsq

.model D1N4446  D(Is=1.071n N=1.698 Rs=.8383 Ikf=0 Xti=3 Eg=1.11 Cjo=4p M=.3333
+               Vj=.75 Fc=.5 Isr=2.441n Nr=2 Bv=100 Ibv=100u Tt=11.54n)
*		TELEFUNKEN	pid=d1n4446	case=DO35
*		91-08-20 dsq

.model D1N4447  D(Is=1.071n N=1.698 Rs=.8383 Ikf=0 Xti=3 Eg=1.11 Cjo=2p M=.3333
+               Vj=.5 Fc=.5 Isr=2.149n Nr=2 Bv=100 Ibv=100u Tt=11.54n)
*		TELEFUNKEN	pid=d1n4447	case=DO35
*		91-08-20 dsq

.model D1N4448  D(Is=2.681n N=1.835 Rs=.5142 Ikf=34.82m Xti=3 Eg=1.11 Cjo=4p
+               M=.3333 Vj=.5 Fc=.5 Isr=1.566n Nr=2 Bv=100 Ibv=100u Tt=11.54n)
*		TELEFUNKEN	pid=d1n4448	case=DO35
*		91-08-20 dsq

.model D1N4449  D(Is=2.018n N=1.791 Rs=.6887 Ikf=0 Xti=3 Eg=1.11 Cjo=2p M=.3333
+               Vj=.5 Fc=.5 Isr=1.806n Nr=2 Bv=100 Ibv=100u Tt=11.54n)
*		TELEFUNKEN	pid=d1n4449	case=DO35
*		91-08-20 dsq

.model BA204    D(Is=36.76n N=2.208 Rs=0 Ikf=.8822 Xti=3 Eg=1.11 Cjo=2.601p
+               M=.1126 Vj=.5 Fc=.5 Isr=39.81n Nr=2 Bv=50 Ibv=1u Tt=14.43n)
*		TELEFUNKEN	pid=ba204	case=DO35
*		91-08-19 dsq

.model BA220    D(Is=3.608n N=1.84 Rs=0 Ikf=26.23m Xti=3 Eg=1.11 Cjo=2.5p
+               M=.3333 Vj=.5 Fc=.5 Bv=10 Ibv=1.5u Tt=25.95n)
*		PHILIPS		pid=ba220	case=DO35
*		91-08-20 dsq

.model BA221    D(Is=478n N=2.719 Rs=0 Ikf=.5348 Xti=3 Eg=1.11 Cjo=2.5p M=.3333
+               Vj=.5 Fc=.5 Bv=30 Ibv=200n Tt=25.95n)
*		PHILIPS		pid=ba221	case=DO35
*		91-08-20 dsq

.model BA314    D(Is=32.62f N=1.151 Rs=.3876 Ikf=0 Xti=3 Eg=1.11 Cjo=140p
+               M=.3333 Vj=.5 Fc=.5 Bv=4 Ibv=5u )
*		PHILIPS		pid=ba314	case=DO35
*		91-08-20 dsq

.model BA315    D(Is=3.334n N=1.912 Rs=.5497 Ikf=35.98m Xti=3 Eg=1.11 Cjo=3p
+               M=.3333 Vj=.5 Fc=.5 Bv=5 Ibv=1.5u )
*		PHILIPS		pid=ba315	case=DO35
*		91-08-20 dsq

.model BA316    D(Is=66.6n N=2.353 Rs=.7979 Ikf=0 Xti=3 Eg=1.11 Cjo=2p M=.3333
+               Vj=.5 Fc=.5 Bv=10 Ibv=200n Tt=25.95n)
*		PHILIPS		pid=ba318	case=DO35
*		91-08-20 dsq

.model BA317    D(Is=66.6n N=2.353 Rs=.7979 Ikf=0 Xti=3 Eg=1.11 Cjo=2p M=.3333
+               Vj=.5 Fc=.5 Bv=30 Ibv=200n Tt=25.95n)
*		PHILIPS		pid=ba318	case=DO35
*		91-08-20 dsq

.model BA318    D(Is=66.6n N=2.353 Rs=.7979 Ikf=0 Xti=3 Eg=1.11 Cjo=2p M=.3333
+               Vj=.5 Fc=.5 Bv=50 Ibv=200n Tt=25.95n)
*		PHILIPS		pid=ba318	case=DO35
*		91-08-20 dsq

.model BA482    D(Is=5.714p N=1.52 Rs=0 Ikf=0 Xti=3 Eg=1.11 Cjo=1.041p M=.3333
+               Vj=.5 Fc=.5 Isr=288.4p Nr=2 )
*		PHILIPS		pid=ba482	case=DO34
*		91-08-20 dsq

.model BA483    D(Is=5.714p N=1.52 Rs=0 Ikf=0 Xti=3 Eg=1.11 Cjo=956.5f M=.3333
+               Vj=.5 Fc=.5 Isr=288.4p Nr=2 )
*		PHILIPS		pid=ba483	case=DO34
*		91-08-20 dsq

.model BA484    D(Is=5.714p N=1.52 Rs=0 Ikf=0 Xti=3 Eg=1.11 Cjo=1.316p M=.3333
+               Vj=.5 Fc=.5 Isr=288.4p Nr=2 )
*		PHILIPS		pid=ba484	case=DO34
*		91-08-20 dsq

.model BAL74    D(Is=12.47n N=2.098 Rs=.74 Ikf=0 Xti=3 Eg=1.11 Cjo=2p M=.3333
+               Vj=.5 Fc=.5 Isr=12.36n Nr=2 Bv=75 Ibv=100u Tt=5.771n)
*		SIEMENS		pid=bal74	case=SOT23
*		91-08-26 dsq

.model BAL99    D(Is=12.47n N=2.098 Rs=.74 Ikf=0 Xti=3 Eg=1.11 Cjo=1.5p M=.3333
+               Vj=.5 Fc=.5 Isr=333.9n Nr=2 Bv=105 Ibv=100u Tt=8.656n)
*		SIEMENS		pid=bal99	case=SOT23
*		91-08-26 dsq

.model BAQ33    D(Is=18.01f N=1.162 Rs=.7165 Xti=3 Eg=1.11 Cjo=3p
+               M=.3333 Vj=.5 Fc=.5 Isr=159.2p Nr=2 Bv=40 Ibv=5u )
*		TELEFUNKEN	pid=baq33	case=SOD80
*		91-08-19 dsq

.model BAQ34    D(Is=18.01f N=1.162 Rs=.7165 Xti=3 Eg=1.11 Cjo=3p
+               M=.3333 Vj=.5 Fc=.5 Isr=127p Nr=2 Bv=70 Ibv=5u )
*		TELEFUNKEN	pid=baq34	case=SOD80
*		91-08-19 dsq

.model BAQ35    D(Is=18.01f N=1.162 Rs=.7165 Xti=3 Eg=1.11 Cjo=3p
+               M=.3333 Vj=.5 Fc=.5 Isr=101.1p Nr=2 Bv=140 Ibv=5u)
*		TELEFUNKEN	pid=baq35	case=SOD80
*		91-08-19 dsq

.model BAR74    D(Is=12.47n N=2.098 Rs=.74 Ikf=0 Xti=3 Eg=1.11 Cjo=2p M=.3333
+               Vj=.5 Fc=.5 Isr=12.36n Nr=2 Bv=75 Ibv=100u Tt=5.771n)
*		SIEMENS		pid=bal74	case=SOT23
*		91-08-26 dsq

.model BAR99    D(Is=12.47n N=2.098 Rs=.74 Ikf=0 Xti=3 Eg=1.11 Cjo=1.5p M=.3333
+               Vj=.5 Fc=.5 Isr=333.9n Nr=2 Bv=105 Ibv=100u Tt=8.656n)
*		SIEMENS		pid=bal99	case=SOT23
*		91-08-26 dsq

.model BAS16    D(Is=4.198n N=1.977 Rs=.4599 Ikf=1.408 Xti=3 Eg=1.11 Cjo=2p
+               M=.3333 Vj=.5 Fc=.5 Isr=1.115n Nr=2 Bv=75 Ibv=100u Tt=8.656n)
*		SIEMENS		pid=bas16	case=SOT23
*		91-08-29 dsq

.model BAS17    D(Is=3.474p N=1.397 Rs=.4483 Ikf=0 Xti=3 Eg=1.11 Cjo=140p
+               M=.3333 Vj=.5 Fc=.5 Bv=4 Ibv=5u )
*		PHILIPS		pid=bas17	case=SOT23
*		91-08-20 dsq

.model BAS19    D(Is=71.25n N=2.361 Rs=.1985 Ikf=52.12m Xti=3 Eg=1.11 Cjo=5p
+               M=.3333 Vj=.5 Fc=.5 Isr=4.909n Nr=2 Bv=120 Ibv=100u Tt=72.13n)
*		SIEMENS		pid=bas19	case=SOT23
*		91-08-29 dsq

.model BAS20    D(Is=71.25n N=2.361 Rs=.1985 Ikf=52.12m Xti=3 Eg=1.11 Cjo=5p
+               M=.3333 Vj=.5 Fc=.5 Isr=4.29n Nr=2 Bv=200 Ibv=100u Tt=72.13n)
*		SIEMENS		pid=bas20	case=SOT23
*		91-08-29 dsq

.model BAS21    D(Is=71.25n N=2.361 Rs=.1985 Ikf=52.12m Xti=3 Eg=1.11 Cjo=5p
+               M=.3333 Vj=.5 Fc=.5 Isr=3.899n Nr=2 Bv=250 Ibv=100u Tt=72.13n)
*		SIEMENS		pid=bas21	case=SOT23
*		91-08-29 dsq

.model BAS28    D(Is=1.036n N=1.768 Rs=.9405 Ikf=0 Xti=3 Eg=1.11 Cjo=2p M=.3333
+               Vj=.5 Fc=.5 Isr=1.722n Nr=2 Bv=85 Ibv=100u Tt=8.656n)
*		SIEMENS		pid=bas28	case=SOT23
*		91-08-29 dsq

.model BAS32    D(Is=118.4p N=1.574 Rs=.8411 Ikf=0 Xti=3 Eg=1.11 Cjo=1p M=.3333
+               Vj=.5 Fc=.5 Isr=1.896n Nr=2.145 Bv=75 Ibv=5u Tt=5.771n)
*		PHILIPS		pid=bas32	case=SOD80
*		91-08-20 dsq

.model BAS33    D(Is=18.18f N=1.162 Rs=.7323 Ikf=0 Xti=3 Eg=1.11 Cjo=3p M=.3333
+               Vj=.5 Fc=.5 Isr=159.2p Nr=2 Bv=40 Ibv=5u )
*		TELEFUNKEN	pid=bas33	case=DO35
*		91-08-19 dsq

.model BAS34    D(Is=18.18f N=1.162 Rs=.7323 Ikf=0 Xti=3 Eg=1.11 Cjo=3p M=.3333
+               Vj=.5 Fc=.5 Isr=127p Nr=2 Bv=70 Ibv=5u )
*		TELEFUNKEN	pid=bas34	case=DO35
*		91-08-19 dsq

.model BAS40    D(Is=754.9E-21 N=1 Rs=.1 Ikf=0 Xti=3 Eg=1.11 Cjo=4p M=.3333
+               Vj=.5 Fc=.5 Isr=254.1n Nr=2 Bv=40 Ibv=10u)
*		SIEMENS		pid=bas40	case=SOT23
*		91-08-29 dsq

.model BAS40-04 D(Is=754.9E-21 N=1 Rs=.1 Ikf=0 Xti=3 Eg=1.11 Cjo=4p M=.3333
+               Vj=.5 Fc=.5 Isr=254.1n Nr=2 Bv=40 Ibv=10u)
*		SIEMENS		pid=bas40	case=SOT23
*		91-08-29 dsq

.model BAS40-05 D(Is=754.9E-21 N=1 Rs=.1 Ikf=0 Xti=3 Eg=1.11 Cjo=4p M=.3333
+               Vj=.5 Fc=.5 Isr=254.1n Nr=2 Bv=40 Ibv=10u)
*		SIEMENS		pid=bas40	case=SOT23
*		91-08-29 dsq

.model BAS40-06 D(Is=754.9E-21 N=1 Rs=.1 Ikf=0 Xti=3 Eg=1.11 Cjo=4p M=.3333
+               Vj=.5 Fc=.5 Isr=254.1n Nr=2 Bv=40 Ibv=10u)
*		SIEMENS		pid=bas40	case=SOT23
*		91-08-29 dsq

.model BAS70    D(Is=257E-21 N=1 Rs=.1 Ikf=0 Xti=3 Eg=1.11 Cjo=1.5p M=.3333
+               Vj=.5 Fc=.5 Isr=42.95n Nr=2 Bv=70 Ibv=10u )
*		SIEMENS		pid=bas70	case=SOT23
*		91-08-29 dsq

.model BAS70-04 D(Is=257E-21 N=1 Rs=.1 Ikf=0 Xti=3 Eg=1.11 Cjo=1.5p M=.3333
+               Vj=.5 Fc=.5 Isr=42.95n Nr=2 Bv=70 Ibv=10u )
*		SIEMENS		pid=bas70	case=SOT23
*		91-08-29 dsq

.model BAS70-05 D(Is=257E-21 N=1 Rs=.1 Ikf=0 Xti=3 Eg=1.11 Cjo=1.5p M=.3333
+               Vj=.5 Fc=.5 Isr=42.95n Nr=2 Bv=70 Ibv=10u )
*		SIEMENS		pid=bas70	case=SOT23
*		91-08-29 dsq

.model BAS70-06 D(Is=257E-21 N=1 Rs=.1 Ikf=0 Xti=3 Eg=1.11 Cjo=1.5p M=.3333
+               Vj=.5 Fc=.5 Isr=42.95n Nr=2 Bv=70 Ibv=10u )
*		SIEMENS		pid=bas70	case=SOT23
*		91-08-29 dsq

.model BAT17    D(Is=3.167n N=1.104 Rs=.7144 Ikf=8.133m Xti=3 Eg=1.11
+               Cjo=921.1f M=.3333 Vj=.5 Fc=.5 Isr=50.62n Nr=2 Bv=4 Ibv=10u)
*		SIEMENS		pid=bat17	case=SOT23
*		91-08-29 dsq

.model BAT17-04 D(Is=3.167n N=1.104 Rs=.7144 Ikf=8.133m Xti=3 Eg=1.11
+               Cjo=921.1f M=.3333 Vj=.5 Fc=.5 Isr=50.62n Nr=2 Bv=4 Ibv=10u)
*		SIEMENS		pid=bat17	case=SOT23
*		91-08-29 dsq

.model BAT17-05 D(Is=3.167n N=1.104 Rs=.7144 Ikf=8.133m Xti=3 Eg=1.11
+               Cjo=921.1f M=.3333 Vj=.5 Fc=.5 Isr=50.62n Nr=2 Bv=4 Ibv=10u)
*		SIEMENS		pid=bat17	case=SOT23
*		91-08-29 dsq

.model BAT17-06 D(Is=3.167n N=1.104 Rs=.7144 Ikf=8.133m Xti=3 Eg=1.11
+               Cjo=921.1f M=.3333 Vj=.5 Fc=.5 Isr=50.62n Nr=2 Bv=4 Ibv=10u)
*		SIEMENS		pid=bat17	case=SOT23
*		91-08-29 dsq

.model BAT18    D(Is=458.2f N=1.304 Rs=0 Ikf=79.99m Xti=3 Eg=1.11 Cjo=2.419p
+               M=.3333 Vj=.5 Fc=.5 Isr=10.69p Nr=2.141 )
*		PHILIPS		pid=bat18	case=SOT23
*		91-08-20 dsq

.model BAV10    D(Is=118.2n N=2.252 Rs=.5711 Ikf=0 Xti=3 Eg=1.11 Cjo=1.7p
+               M=.3333 Vj=.5256 Fc=.5 Bv=60 Ibv=100n Tt=8.656n)
*		PHILIPS		pid=bav10	case=SOD27
*		91-08-20 dsq

.model BAV17    D(Is=712.8p N=1.64 Rs=1.241 Ikf=0 Xti=3 Eg=1.11 Cjo=1.5p
+               M=.3333 Vj=.5 Fc=.5 Isr=28.8n Nr=2 Bv=25 Ibv=100u Tt=72.13n)
*		TELEFUNKEN	pid=bav17	case=DO35
*		91-08-19 dsq

.model BAV18    D(Is=546.9n N=2.854 Rs=.1647 Ikf=.1486 Xti=3 Eg=1.11 Cjo=1.456p
+               M=.3333 Vj=.5 Fc=.5 Bv=60 Ibv=100u Tt=72.13n)
*		PHILIPS		pid=bav21	case=DO35
*		91-08-20 dsq

.model BAV19    D(Is=546.9n N=2.854 Rs=.1647 Ikf=.1486 Xti=3 Eg=1.11 Cjo=1.456p
+               M=.3333 Vj=.5 Fc=.5 Bv=120 Ibv=100u Tt=72.13n)
*		PHILIPS		pid=bav21	case=DO35
*		91-08-20 dsq

.model BAV20    D(Is=546.9n N=2.854 Rs=.1647 Ikf=.1486 Xti=3 Eg=1.11 Cjo=1.456p
+               M=.3333 Vj=.5 Fc=.5 Bv=200 Ibv=100u Tt=72.13n)
*		PHILIPS		pid=bav21	case=DO35
*		91-08-20 dsq

.model BAV21    D(Is=546.9n N=2.854 Rs=.1647 Ikf=.1486 Xti=3 Eg=1.11 Cjo=1.456p
+               M=.3333 Vj=.5 Fc=.5 Bv=250 Ibv=100u Tt=72.13n)
*		PHILIPS		pid=bav21	case=DO35
*		91-08-20 dsq

.model BAV70    D(Is=1.211n N=1.797 Rs=.8835 Ikf=0 Xti=3 Eg=1.11 Cjo=1.5p
+               M=.3333 Vj=.5 Fc=.5 Isr=1.689n Nr=2 Tt=8.656n)
*		SIEMENS		pid=bav70	case=SOT23
*		91-08-29 dsq

.model BAV74    D(Is=1.211n N=1.797 Rs=.8837 Ikf=0 Xti=3 Eg=1.11 Cjo=2p M=.3333
+               Vj=.5 Fc=.5 Isr=21.22n Nr=2 Tt=5.771n)
*		SIEMENS		pid=bav74	case=SOT23
*		91-08-29 dsq

.model BAV99    D(Is=1.211n N=1.797 Rs=.8837 Ikf=0 Xti=3 Eg=1.11 Cjo=1.5p
+               M=.3333 Vj=.5 Fc=.5 Isr=1.689n Nr=2 Tt=8.656n)
*		SIEMENS		pid=bav99	case=SOT23
*		91-08-29 dsq

.model BAV100  D(Is=546.9n N=2.854 Rs=.1647 Ikf=.1486 Xti=3 Eg=1.11 Cjo=1.456p
+               M=.3333 Vj=.5 Fc=.5 Bv=60 Ibv=100u Tt=72.13n)
*		PHILIPS		pid=bav103	case=SOD80
*		91-08-20 dsq

.model BAV101  D(Is=546.9n N=2.854 Rs=.1647 Ikf=.1486 Xti=3 Eg=1.11 Cjo=1.456p
+               M=.3333 Vj=.5 Fc=.5 Bv=120 Ibv=100u Tt=72.13n)
*		PHILIPS		pid=bav103	case=SOD80
*		91-08-20 dsq

.model BAV102   D(Is=546.9n N=2.854 Rs=.1647 Ikf=.1486 Xti=3 Eg=1.11 Cjo=1.456p
+               M=.3333 Vj=.5 Fc=.5 Bv=200 Ibv=100u Tt=72.13n)
*		PHILIPS		pid=bav103	case=SOD80
*		91-08-20 dsq

.model BAV103   D(Is=546.9n N=2.854 Rs=.1647 Ikf=.1486 Xti=3 Eg=1.11 Cjo=1.456p
+               M=.3333 Vj=.5 Fc=.5 Bv=250 Ibv=100u Tt=72.13n)
*		PHILIPS		pid=bav103	case=SOD80
*		91-08-20 dsq

.model BAW24    D(Is=92.66n N=2.661 Rs=.2305 Ikf=0 Xti=3 Eg=1.11 Cjo=4p M=.3333
+               Vj=.5 Fc=.5 Isr=1.697n Nr=2 Bv=50 Ibv=5u Tt=8.656n)
*		TELEFUNKEN	pid=baw24	case=DO35
*		91-08-19 dsq

.model BAW25    D(Is=1.027u N=2.807 Rs=.329 Ikf=0 Xti=3 Eg=1.11 Cjo=4p M=.3333
+               Vj=.5 Fc=.5 Bv=50 Ibv=5u Tt=8.656n)
*		TELEFUNKEN	pid=baw25	case=DO35
*		91-08-19 dsq

.model BAW26    D(Is=92.66n N=2.661 Rs=.2305 Ikf=0 Xti=3 Eg=1.11 Cjo=4p M=.3333
+               Vj=.5 Fc=.5 Isr=1.485n Nr=2 Bv=75 Ibv=5u Tt=8.656n)
*		TELEFUNKEN	pid=baw26	case=DO35
*		91-08-19 dsq

.model BAW27    D(Is=1.347n N=1.132 Rs=.5822 Ikf=9.244u Xti=3 Eg=1.11 Cjo=4p
+               M=.3333 Vj=.5 Fc=.5 Isr=19.95n Nr=2 Bv=75 Ibv=5u Tt=8.656n)
*		TELEFUNKEN	pid=baw27	case=DO35
*		91-08-19 dsq

.model BAW56    D(Is=4.198n N=1.977 Rs=.4599 Ikf=1.408 Xti=3 Eg=1.11 Cjo=2p
+               M=.3333 Vj=.5 Fc=.5 Isr=1.115n Nr=2 Tt=8.656n)
*		SIEMENS		pid=baw56	case=SOT23
*		91-08-29 dsq

.model BAW62    D(Is=28.91n N=2.207 Rs=.7275 Ikf=0 Xti=3 Eg=1.11 Cjo=1.247p
+               M=.3333 Vj=.5 Fc=.5 Bv=75 Ibv=5u Tt=5.771n)
*		PHILIPS		pid=baw62	case=SOD27
*		91-08-20 dsq

.model BAW78A   D(Is=2.84f N=1.017 Rs=.3281 Ikf=.3883 Xti=3 Eg=1.11 Cjo=10p
+               M=.3333 Vj=.5 Fc=.5 Isr=2.148n Nr=2 Tt=1.443u)
*		SIEMENS		pid=baw78a	case=SOT89
*		91-08-28 dsq

.model BAW78B   D(Is=2.84f N=1.017 Rs=.3281 Ikf=.3883 Xti=3 Eg=1.11 Cjo=10p
+               M=.3333 Vj=.5 Fc=.5 Isr=1.707n Nr=2 Tt=1.443u)
*		SIEMENS		pid=baw78b	case=SOT89
*		91-08-28 dsq

.model BAW78C   D(Is=2.84f N=1.017 Rs=.3281 Ikf=.3883 Xti=3 Eg=1.11 Cjo=10p
+               M=.3333 Vj=.5 Fc=.5 Isr=1.356n Nr=2 Tt=1.443u)
*		SIEMENS		pid=baw78c	case=SOT89
*		91-08-28 dsq

.model BAW78D   D(Is=2.84f N=1.017 Rs=.3281 Ikf=.3883 Xti=3 Eg=1.11 Cjo=10p
+               M=.3333 Vj=.5 Fc=.5 Isr=1.077n Nr=2 Tt=1.443u)
*		SIEMENS		pid=baw78d	case=SOT89
*		91-08-28 dsq

.model BAW79A   D(Is=2.84f N=1.017 Rs=.3281 Ikf=.3883 Xti=3 Eg=1.11 Cjo=10p
+               M=.3333 Vj=.5 Fc=.5 Isr=2.148n Nr=2 Tt=1.443u)
*		SIEMENS		pid=baw78a	case=SOT89
*		91-08-28 dsq

.model BAW79B   D(Is=2.84f N=1.017 Rs=.3281 Ikf=.3883 Xti=3 Eg=1.11 Cjo=10p
+               M=.3333 Vj=.5 Fc=.5 Isr=1.707n Nr=2 Tt=1.443u)
*		SIEMENS		pid=baw78b	case=SOT89
*		91-08-28 dsq

.model BAW79C   D(Is=2.84f N=1.017 Rs=.3281 Ikf=.3883 Xti=3 Eg=1.11 Cjo=10p
+               M=.3333 Vj=.5 Fc=.5 Isr=1.356n Nr=2 Tt=1.443u)
*		SIEMENS		pid=baw78c	case=SOT89
*		91-08-28 dsq

.model BAW79D   D(Is=2.84f N=1.017 Rs=.3281 Ikf=.3883 Xti=3 Eg=1.11 Cjo=10p
+               M=.3333 Vj=.5 Fc=.5 Isr=1.077n Nr=2 Tt=1.443u)
*		SIEMENS		pid=baw78d	case=SOT89
*		91-08-28 dsq

.model BAW101   D(Is=6.431p N=1.383 Rs=.405 Ikf=0 Xti=3 Eg=1.11 Cjo=6p M=.3333
+               Vj=.5 Fc=.5 Isr=18.89n Nr=2 Bv=300 Ibv=100u Tt=1.443u)
*		SIEMENS		pid=baw101	case=SOT143
*		91-08-29 dsq

.model BAX12    D(Is=492.7n N=2.427 Rs=0 Ikf=13.1T Xti=3 Eg=1.11 Cjo=15p
+               M=.3333 Vj=.5 Fc=.5 Bv=148 Ibv=1m Tt=72.13n)
*		PHILIPS		pid=bax12	case=DO35
*		91-08-20 dsq

.model BAX14    D(Is=634.5p N=1.517 Rs=.1166 Ikf=.134 Xti=3 Eg=1.11 Cjo=20p
+               M=.3333 Vj=.5 Fc=.5 Isr=28.82n Nr=2 Tt=72.13n)
*		PHILIPS		pid=bax14	case=SOD27
*		91-08-20 dsq

.model BAX18    D(Is=113.7f N=1.116 Rs=.16 Ikf=0 Xti=3 Eg=1.11 Cjo=20p M=.3333
+               Vj=.5 Fc=.5 Isr=5.635n Nr=2 )
*		PHILIPS		pid=bax18	case=SOD27
*		91-08-20 dsq

.model BAY68    D(Is=44.55n N=2.245 Rs=31.65m Ikf=0 Xti=3 Eg=1.11 Cjo=2.285p
+               M=.1136 Vj=.5 Fc=.5 Isr=35.47n Nr=2 Bv=35 Ibv=100u Tt=14.43n)
*		TELEFUNKEN	pid=bay68	case=DO35
*		91-08-19 dsq

.model BAY69    D(Is=44.55n N=2.245 Rs=31.65m Ikf=0 Xti=3 Eg=1.11 Cjo=2.285p
+               M=.1136 Vj=.5 Fc=.5 Isr=32.82n Nr=2 Bv=60 Ibv=100u Tt=14.43n)
*		TELEFUNKEN	pid=bay69 	case=DO35
*		91-08-19 dsq

.model BAY80    D(Is=10.64n N=2.111 Rs=0 Ikf=.1809 Xti=3 Eg=1.11 Cjo=6p M=.3333
+               Vj=.5 Fc=.5 Isr=14.36n Nr=2 Bv=150 Ibv=100u Tt=72.13n)
*		PHILIPS		pid=bay80	case=DO35
*		91-08-20 dsq

.model BAY135   D(Is=18.06f N=1.162 Rs=.7274 Ikf=0 Xti=3 Eg=1.11 Cjo=3p M=.3333
+               Vj=.5 Fc=.5 Isr=202.2p Nr=2 Bv=140 Ibv=5u )
*		TELEFUNKEN	pid=bay135	case=DO35
*		91-08-19 dsq

.model BGX50A   D(Is=34.64p N=1.508 Rs=.8895 Ikf=.317 Xti=3 Eg=1.11 Cjo=1.5p
+               M=.3333 Vj=.5 Fc=.5 Isr=1.915n Nr=2 Tt=8.656n)
*		SIEMENS		pid=bgx50a	case=SOT143
*		91-08-29 dsq

.model LL4148   D(Is=2.565n N=1.83 Rs=.5557 Ikf=36.88m Xti=3 Eg=1.11 Cjo=1.501p
+               M=78.12m Vj=.5 Fc=.5 Isr=3.377u Nr=2 Bv=100 Ibv=100u Tt=11.54n)
*		TELEFUNKEN	pid=ll4148	case=SOD80
*		91-08-19 dsq

.model LL4150   D(Is=3.142n N=1.686 Rs=.5046 Ikf=28.86m Xti=3 Eg=1.11 Cjo=2.5p
+               M=.3333 Vj=.5 Fc=.5 Bv=50 Ibv=100n Tt=5.771n)
*		TELEFUNKEN	pid=ll4150	case=SOD80
*		91-08-19 dsq

.model LL4151   D(Is=10.62n N=2.018 Rs=.3839 Ikf=14.03m Xti=3 Eg=1.11 Cjo=1.72p
+               M=95.03m Vj=.5 Fc=.5 Isr=25.4n Nr=2 Bv=75 Ibv=5u Tt=5.771n)
*		TELEFUNKEN	pid=ll4151	case=SOD80
*		91-08-19 dsq

.model LL4154   D(Is=3.378n N=1.825 Rs=.4962 Ikf=8.849m Xti=3 Eg=1.11 Cjo=2.3p
+               M=.1486 Vj=.5 Fc=.5 Isr=53.86n Nr=2 Bv=35 Ibv=5u Tt=5.771n)
*		TELEFUNKEN	pid=ll4154	case=SOD80
*		91-08-19 dsq

.model LL4448   D(Is=2.388n N=1.817 Rs=.5104 Ikf=27.83m Xti=3 Eg=1.11
+               Cjo=1.501p M=78.12m Vj=.5 Fc=.5 Isr=3.377u Nr=2 Bv=100 Ibv=100u
+               Tt=11.54n)
*		TELEFUNKEN	pid=ll4448	case=SOD80
*		91-08-19 dsq

.model SMB914   D(Is=4.198n N=1.977 Rs=.4599 Ikf=1.408 Xti=3 Eg=1.11 Cjo=2p
+               M=.3333 Vj=.5 Fc=.5 Isr=1.115n Nr=2 Bv=100 Ibv=100u Tt=5.771n)
*		SIEMENS		pid=smb914	case=SOT23
*		91-08-29 dsq

*------------------------------------------------------------------------------
* Small-Signal Bipolar Transistors
* contents: SIEMENS Discrete Semiconductors for Surface Mounting 87/88
* contents: PHILIPS Semiconductors Book S3 1988
* note	: hoe, C and Ts may be estimated by given or conventional limits.

.model BC107A   NPN(Is=7.049f Xti=3 Eg=1.11 Vaf=116.3 Bf=375.5 Ise=7.049f
+               Ne=1.281 Ikf=4.589 Nk=.5 Xtb=1.5 Br=2.611 Isc=121.7p Nc=1.865
+               Ikr=5.313 Rc=1.464 Cjc=5.38p Mjc=.329 Vjc=.6218 Fc=.5 Cje=11.5p
+               Mje=.2717 Vje=.5 Tr=10n Tf=451p Itf=6.194 Xtf=17.43 Vtf=10)
*		PHILIPS		pid=bc107a	case=TO18
*		91-08-02 dsq

.model BC107B   NPN(Is=7.049f Xti=3 Eg=1.11 Vaf=59.59 Bf=381.7 Ise=59.74f
+               Ne=1.522 Ikf=3.289 Nk=.5 Xtb=1.5 Br=2.359 Isc=192.9p Nc=1.954
+               Ikr=7.807 Rc=1.427 Cjc=5.38p Mjc=.329 Vjc=.6218 Fc=.5 Cje=11.5p
+               Mje=.2718 Vje=.5 Tr=10n Tf=438p Itf=5.716 Xtf=14.51 Vtf=10)
*		PHILIPS		pid=bc107b	case=TO18
*		91-08-02 dsq

.model BC108A   NPN(Is=7.049f Xti=3 Eg=1.11 Vaf=116.3 Bf=375.5 Ise=7.049f
+               Ne=1.281 Ikf=4.589 Nk=.5 Xtb=1.5 Br=2.611 Isc=121.7p Nc=1.865
+               Ikr=5.313 Rc=1.464 Cjc=5.38p Mjc=.329 Vjc=.6218 Fc=.5 Cje=11.5p
+               Mje=.2717 Vje=.5 Tr=10n Tf=451p Itf=6.194 Xtf=17.43 Vtf=10)
*		PHILIPS		pid=bc107a	case=TO18
*		91-08-02 dsq

.model BC108B   NPN(Is=7.049f Xti=3 Eg=1.11 Vaf=59.59 Bf=381.7 Ise=59.74f
+               Ne=1.522 Ikf=3.289 Nk=.5 Xtb=1.5 Br=2.359 Isc=192.9p Nc=1.954
+               Ikr=7.807 Rc=1.427 Cjc=5.38p Mjc=.329 Vjc=.6218 Fc=.5 Cje=11.5p
+               Mje=.2718 Vje=.5 Tr=10n Tf=438p Itf=5.716 Xtf=14.51 Vtf=10)
*		PHILIPS		pid=bc107b	case=TO18
*		91-08-02 dsq

.model BC108C   NPN(Is=7.049f Xti=3 Eg=1.11 Vaf=28.14 Bf=677 Ise=7.049f Ne=1.38
+               Ikf=96.23 Nk=.5 Xtb=1.5 Br=2.209 Isc=250.3p Nc=2.002 Ikr=10.73
+               Rc=1.433 Cjc=5.38p Mjc=.329 Vjc=.6218 Fc=.5 Cje=11.5p Mje=.2717
+               Vje=.5 Tr=10n Tf=437.8p Itf=3.097 Xtf=12.85 Vtf=10)
*		PHILIPS		pid=bc108c	case=TO18
*		91-08-02 dsq

.model BC109B   NPN(Is=7.049f Xti=3 Eg=1.11 Vaf=59.59 Bf=381.7 Ise=59.74f
+               Ne=1.522 Ikf=3.289 Nk=.5 Xtb=1.5 Br=2.359 Isc=192.9p Nc=1.954
+               Ikr=7.807 Rc=1.427 Cjc=5.38p Mjc=.329 Vjc=.6218 Fc=.5 Cje=11.5p
+               Mje=.2718 Vje=.5 Tr=10n Tf=438p Itf=5.716 Xtf=14.51 Vtf=10)
*		PHILIPS		pid=bc107b	case=TO18
*		91-08-02 dsq

.model BC109C   NPN(Is=7.049f Xti=3 Eg=1.11 Vaf=28.14 Bf=677 Ise=7.049f Ne=1.38
+               Ikf=96.23 Nk=.5 Xtb=1.5 Br=2.209 Isc=250.3p Nc=2.002 Ikr=10.73
+               Rc=1.433 Cjc=5.38p Mjc=.329 Vjc=.6218 Fc=.5 Cje=11.5p Mje=.2717
+               Vje=.5 Tr=10n Tf=437.8p Itf=3.097 Xtf=12.85 Vtf=10)
*		PHILIPS		pid=bc108c	case=TO18
*		91-08-02 dsq

.model BC177    PNP(Is=336.7f Xti=3 Eg=1.11 Vaf=55.46 Bf=154.4 Ise=412.1f
+               Ne=1.429 Ikf=.2994 Nk=.7028 Xtb=1.5 Br=3.99 Isc=1.03n Nc=1.958
+               Ikr=9.726 Rc=1.833 Cjc=11p Mjc=.2223 Vjc=.5 Fc=.5 Cje=33p
+               Mje=.3333 Vje=.5 Tr=10n Tf=847.7p Itf=2.198 Xtf=23.26 Vtf=10)
*		PHILIPS		pid=bc177	case=TO18
*		91-07-31 dsq

.model BC178A   PNP(Is=336.7f Xti=3 Eg=1.11 Vaf=44.61 Bf=187 Ise=336.8f
+               Ne=1.459 Ikf=.2059 Nk=.5081 Xtb=1.5 Br=4.068 Isc=1.121n
+               Nc=1.953 Ikr=10.05 Rc=1.86 Cjc=11p Mjc=.2223 Vjc=.5 Fc=.5
+               Cje=33p Mje=.3333 Vje=.5 Tr=10n Tf=845.5p Itf=1.701 Xtf=19.04
+               Vtf=10)
*		PHILIPS		pid=bc178a	case=TO18
*		91-08-02 dsq

.model BC178B   PNP(Is=336.7f Xti=3 Eg=1.11 Vaf=30.75 Bf=271.9 Ise=2.821p
+               Ne=1.925 Ikf=.2462 Nk=.5416 Xtb=1.5 Br=3.009 Isc=1.753n
+               Nc=2.075 Ikr=8.143 Rc=1.803 Cjc=11p Mjc=.2223 Vjc=.5 Fc=.5
+               Cje=33p Mje=.3333 Vje=.5 Tr=10n Tf=846p Itf=1.546 Xtf=18.27
+               Vtf=10)
*		PHILIPS 	pid=bc178b	case=TO18
*		91-08-02 dsq

.model BC179A   PNP(Is=336.7f Xti=3 Eg=1.11 Vaf=44.61 Bf=187 Ise=336.8f
+               Ne=1.459 Ikf=.2059 Nk=.5081 Xtb=1.5 Br=4.068 Isc=1.121n
+               Nc=1.953 Ikr=10.05 Rc=1.86 Cjc=11p Mjc=.2223 Vjc=.5 Fc=.5
+               Cje=33p Mje=.3333 Vje=.5 Tr=10n Tf=845.5p Itf=1.701 Xtf=19.04
+               Vtf=10)
*		PHILIPS		pid=bc178a	case=TO18
*		91-08-02 dsq

.model BC179B   PNP(Is=336.7f Xti=3 Eg=1.11 Vaf=30.75 Bf=271.9 Ise=2.821p
+               Ne=1.925 Ikf=.2462 Nk=.5416 Xtb=1.5 Br=3.009 Isc=1.753n
+               Nc=2.075 Ikr=8.143 Rc=1.803 Cjc=11p Mjc=.2223 Vjc=.5 Fc=.5
+               Cje=33p Mje=.3333 Vje=.5 Tr=10n Tf=846p Itf=1.546 Xtf=18.27
+               Vtf=10)
*		PHILIPS 	pid=bc178b	case=TO18
*		91-08-02 dsq

.model BC368    NPN(Is=14.06f Xti=3 Eg=1.11 Vaf=100 Bf=187.6 Ise=137.2f
+               Ne=1.468 Ikf=4.103 Nk=.5507 Xtb=1.5 Br=4.541 Isc=44.13f
+               Nc=1.471 Ikr=1.701 Rc=91m Cjc=52.24p Mjc=.3333 Vjc=.5 Fc=.5
+               Cje=156p Mje=.3333 Vje=.5 Tr=10n Tf=964.8p Itf=595.3 Xtf=1.001K
+               Vtf=10)
*		PHILIPS		pid=bc368	case=TO92
*		91-08-02 dsq

.model BC369    PNP(Is=13.01f Xti=3 Eg=1.11 Vaf=100 Bf=191.1 Ise=105f Ne=1.695
+               Ikf=2.253 Nk=.5176 Xtb=1.5 Br=9.046MEG Isc=853.3f Nc=9.905
+               Ikr=116.1 Rc=.1694 Cjc=87.73p Mjc=.3333 Vjc=.5 Fc=.5 Cje=261p
+               Mje=.3333 Vje=.5 Tr=10n Tf=998.5p Itf=14.84 Xtf=15.37 Vtf=10)
*		PHILIPS		pid=bc369	case=TO92
*		91-07-31 dsq

.model BC546A   NPN(Is=7.049f Xti=3 Eg=1.11 Vaf=127.9 Bf=253 Ise=96.26f
+               Ne=1.556 Ikf=77.05m Nk=.5305 Xtb=1.5 Br=1 Isc=130.8f Nc=1.602
+               Ikr=3.321 Rc=.8766 Cjc=5.25p Mjc=.3147 Vjc=.5697 Fc=.5
+               Cje=11.5p Mje=.6715 Vje=.5 Tr=10n Tf=409.5p Itf=1.994 Xtf=40.12
+               Vtf=10)
*		PHILIPS		pid=bc546a	case=TO92
*		91-07-31 dsq

.model BC546B   NPN(Is=7.049f Xti=3 Eg=1.11 Vaf=62.79 Bf=374.6 Ise=68f Ne=1.576
+               Ikf=81.57m Nk=.4767 Xtb=1.5 Br=1 Isc=12.4f Nc=1.835 Ikr=3.924
+               Rc=.9747 Cjc=5.25p Mjc=.3147 Vjc=.5697 Fc=.5 Cje=11.5p
+               Mje=.6715 Vje=.5 Tr=10n Tf=410.2p Itf=1.491 Xtf=40.06 Vtf=10)
*		PHILIPS		pid=bc546b	case=TO92
*		91-07-31 dsq

.model BC547A   NPN(Is=7.049f Xti=3 Eg=1.11 Vaf=127.9 Bf=253 Ise=96.26f
+               Ne=1.556 Ikf=77.05m Nk=.5305 Xtb=1.5 Br=1 Isc=130.8f Nc=1.602
+               Ikr=3.321 Rc=.8766 Cjc=5.25p Mjc=.3147 Vjc=.5697 Fc=.5
+               Cje=11.5p Mje=.6715 Vje=.5 Tr=10n Tf=409.5p Itf=1.994 Xtf=40.12
+               Vtf=10)
*		PHILIPS		pid=bc546a	case=TO92
*		91-07-31 dsq

.model BC547B   NPN(Is=7.049f Xti=3 Eg=1.11 Vaf=62.79 Bf=374.6 Ise=68f Ne=1.576
+               Ikf=81.57m Nk=.4767 Xtb=1.5 Br=1 Isc=12.4f Nc=1.835 Ikr=3.924
+               Rc=.9747 Cjc=5.25p Mjc=.3147 Vjc=.5697 Fc=.5 Cje=11.5p
+               Mje=.6715 Vje=.5 Tr=10n Tf=410.2p Itf=1.491 Xtf=40.06 Vtf=10)
*		PHILIPS		pid=bc546b	case=TO92
*		91-07-31 dsq

.model BC547C   NPN(Is=7.049f Xti=3 Eg=1.11 Vaf=24.76 Bf=543.1 Ise=78.17f
+               Ne=1.679 Ikf=94.96m Nk=.5381 Xtb=1.5 Br=1 Isc=27.51f Nc=1.775
+               Ikr=3.321 Rc=.9706 Cjc=5.25p Mjc=.3147 Vjc=.5697 Fc=.5
+               Cje=11.5p Mje=.6715 Vje=.5 Tr=10n Tf=410.7p Itf=1.12 Xtf=26.19
+               Vtf=10)
*		PHILIPS		pid=bc547c	case=TO92
*		91-07-31 dsq

.model BC548A   NPN(Is=7.049f Xti=3 Eg=1.11 Vaf=127.9 Bf=253 Ise=96.26f
+               Ne=1.556 Ikf=77.05m Nk=.5305 Xtb=1.5 Br=1 Isc=130.8f Nc=1.602
+               Ikr=3.321 Rc=.8766 Cjc=5.25p Mjc=.3147 Vjc=.5697 Fc=.5
+               Cje=11.5p Mje=.6715 Vje=.5 Tr=10n Tf=409.5p Itf=1.994 Xtf=40.12
+               Vtf=10)
*		PHILIPS		pid=bc546a	case=TO92
*		91-07-31 dsq

.model BC548B   NPN(Is=7.049f Xti=3 Eg=1.11 Vaf=62.79 Bf=374.6 Ise=68f Ne=1.576
+               Ikf=81.57m Nk=.4767 Xtb=1.5 Br=1 Isc=12.4f Nc=1.835 Ikr=3.924
+               Rc=.9747 Cjc=5.25p Mjc=.3147 Vjc=.5697 Fc=.5 Cje=11.5p
+               Mje=.6715 Vje=.5 Tr=10n Tf=410.2p Itf=1.491 Xtf=40.06 Vtf=10)
*		PHILIPS		pid=bc546b	case=TO92
*		91-07-31 dsq

.model BC548C   NPN(Is=7.049f Xti=3 Eg=1.11 Vaf=24.76 Bf=543.1 Ise=78.17f
+               Ne=1.679 Ikf=94.96m Nk=.5381 Xtb=1.5 Br=1 Isc=27.51f Nc=1.775
+               Ikr=3.321 Rc=.9706 Cjc=5.25p Mjc=.3147 Vjc=.5697 Fc=.5
+               Cje=11.5p Mje=.6715 Vje=.5 Tr=10n Tf=410.7p Itf=1.12 Xtf=26.19
+               Vtf=10)
*		PHILIPS		pid=bc547c	case=TO92
*		91-07-31 dsq

.model BC549B   NPN(Is=7.049f Xti=3 Eg=1.11 Vaf=59.93 Bf=375.6 Ise=56.03f
+               Ne=1.553 Ikf=87.07m Nk=.4901 Xtb=1.5 Br=2.886 Isc=7.371p
+               Nc=1.508 Ikr=5.426 Rc=1.175 Cjc=5.5p Mjc=.3132 Vjc=.4924 Fc=.5
+               Cje=11.5p Mje=.6558 Vje=.5 Tr=10n Tf=417.3p Itf=1.512 Xtf=39.51
+               Vtf=10)
*		PHILIPS		pid=bc549b	case=TO92
*		91-07-31 dsq

.model BC549C   NPN(Is=7.049f Xti=3 Eg=1.11 Vaf=23.89 Bf=493.2 Ise=99.2f
+               Ne=1.829 Ikf=.1542 Nk=.6339 Xtb=1.5 Br=2.886 Isc=7.371p
+               Nc=1.508 Ikr=5.426 Rc=1.175 Cjc=5.5p Mjc=.3132 Vjc=.4924 Fc=.5
+               Cje=11.5p Mje=.6558 Vje=.5 Tr=10n Tf=420.3p Itf=1.374 Xtf=39.42
+               Vtf=10)
*		PHILIPS		pid=bc549c	case=TO92
*		91-07-31 dsq

.model BC550B   NPN(Is=7.049f Xti=3 Eg=1.11 Vaf=59.93 Bf=375.6 Ise=56.03f
+               Ne=1.553 Ikf=87.07m Nk=.4901 Xtb=1.5 Br=2.886 Isc=7.371p
+               Nc=1.508 Ikr=5.426 Rc=1.175 Cjc=5.5p Mjc=.3132 Vjc=.4924 Fc=.5
+               Cje=11.5p Mje=.6558 Vje=.5 Tr=10n Tf=417.3p Itf=1.512 Xtf=39.51
+               Vtf=10)
*		PHILIPS		pid=bc549b	case=TO92
*		91-07-31 dsq

.model BC550C   NPN(Is=7.049f Xti=3 Eg=1.11 Vaf=23.89 Bf=493.2 Ise=99.2f
+               Ne=1.829 Ikf=.1542 Nk=.6339 Xtb=1.5 Br=2.886 Isc=7.371p
+               Nc=1.508 Ikr=5.426 Rc=1.175 Cjc=5.5p Mjc=.3132 Vjc=.4924 Fc=.5
+               Cje=11.5p Mje=.6558 Vje=.5 Tr=10n Tf=420.3p Itf=1.374 Xtf=39.42
+               Vtf=10)
*		PHILIPS		pid=bc549c	case=TO92
*		91-07-31 dsq

.model BC556A   PNP(Is=1.02f Xti=3 Eg=1.11 Vaf=73.79 Bf=174.7 Ise=10.73f
+               Ne=1.644 Ikf=.1023 Nk=.5033 Xtb=1.5 Br=4.432 Isc=14.74f
+               Nc=1.296 Ikr=2.237 Rc=1.039 Cjc=9.81p Mjc=.332 Vjc=.4865 Fc=.5
+               Cje=30p Mje=.3333 Vje=.5 Tr=10n Tf=830.3p Itf=.8981 Xtf=10.32
+               Vtf=10)
*		PHILIPS		pid=bc556a	case=TO92
*		91-08-09 dsq

.model BC556B   PNP(Is=1.02f Xti=3 Eg=1.11 Vaf=52.31 Bf=306.5 Ise=10.27f
+               Ne=1.764 Ikf=91.85m Nk=.5351 Xtb=1.5 Br=7.437 Isc=1.02f Nc=1.63
+               Ikr=1.7 Rc=1.162 Cjc=9.81p Mjc=.332 Vjc=.4865 Fc=.5 Cje=30p
+               Mje=.3333 Vje=.5 Tr=10n Tf=611.6p Itf=1.37 Xtf=25.92 Vtf=10)
*		PHILIPS		pid=bc556b	case=TO92
*		91-08-02 dsq

.model BC557A   PNP(Is=1.02f Xti=3 Eg=1.11 Vaf=73.79 Bf=174.7 Ise=10.73f
+               Ne=1.644 Ikf=.1023 Nk=.5033 Xtb=1.5 Br=4.432 Isc=14.74f
+               Nc=1.296 Ikr=2.237 Rc=1.039 Cjc=9.81p Mjc=.332 Vjc=.4865 Fc=.5
+               Cje=30p Mje=.3333 Vje=.5 Tr=10n Tf=830.3p Itf=.8981 Xtf=10.32
+               Vtf=10)
*		PHILIPS		pid=bc556a	case=TO92
*		91-08-09 dsq

.model BC557B   PNP(Is=1.02f Xti=3 Eg=1.11 Vaf=52.31 Bf=306.5 Ise=10.27f
+               Ne=1.764 Ikf=91.85m Nk=.5351 Xtb=1.5 Br=6.48 Isc=1.472f
+               Nc=1.294 Ikr=.5584 Rc=1.086 Cjc=9.81p Mjc=.332 Vjc=.4865 Fc=.5
+               Cje=30p Mje=.3333 Vje=.5 Tr=10n Tf=611.6p Itf=1.373 Xtf=26.05
+               Vtf=10)
*		PHILIPS		pid=bc556b	case=TO92
*		91-08-02 dsq

.model BC557C   PNP(Is=1.02f Xti=3 Eg=1.11 Vaf=30.52 Bf=416.3 Ise=14.67f
+               Ne=1.854 Ikf=.2088 Nk=.8219 Xtb=1.5 Br=9.102 Isc=4.1f Nc=3.982
+               Ikr=19.25m Rc=.9373 Cjc=9.81p Mjc=.332 Vjc=.4865 Fc=.5 Cje=30p
+               Mje=.3333 Vje=.5 Tr=10n Tf=516.2p Itf=1.701 Xtf=35.24 Vtf=10)
*		PHILIPS		pid=bc557c	case=TO92
*		91-08-02 dsq

.model BC558A   PNP(Is=1.02f Xti=3 Eg=1.11 Vaf=73.79 Bf=174.7 Ise=10.73f