******************************************************************************
* Silicon diodes library
*
******************************************************************************

* 1N4148 Switching Diode 75.0V 0.300A 4.00ns Diodes Inc.
.MODEL 1N4148 D(IS=10.4n RS=51.5m BV=75.0 IBV=1.00u CJO=2.00p M=0.333 N=2.07
+		TT=5.76n)

* 1N4007 
.MODEL 1N4007 D(IS=76.9p RS=42.0m BV=1.00k IBV=5.00u CJO=26.5p M=0.333 N=1.45
+		TT=4.32u)
