* Library of Opamp, Voltage Comparator, Voltage Regulator, Voltage
* Reference Models
*
* Copyright 1985-1995 by MicroSim Corporation
* Neither this library nor any part may be copied without the express
* written consent of MicroSim Corporation

* $Revision: 1.30.1.0 $
* $Author: GTR $
* $Date: 31 Jan 1996 13:24:00 $
*
* ---------------------------------------------------------------------------
*** Operational amplifiers

* The parameters in the opamp library were derived from the data sheets for
* each part. The macromodel used is similar to the one described in:
*
* Macromodeling of Integrated Circuit Operational Amplifiers
* by Graeme Boyle, Barry Cohn, Donald Pederson, and James Solomon
* IEEE Journal of SoliE-State Circuits, Vol. SC-9, no. 6, Dec. 1974
*
* Differences from the reference (above) occur in the output limiting stage
* which was modified to reduce internally generated currents associated with
* output voltage limiting, as well as short-circuit current limiting.
*
* The opamps are modelled at room temperature and do not track changes with
* temperature. This library file contains models for nominal, not worst case,
* devices.
*$
*-----------------------------------------------------------------------------
*
* connections: non-inverting input
* | inverting input
* | | positive power supply
* | | | negative power supply
* | | | | output
* | | | | |
.subckt ad648a 1 2 3 4 5
*
c1 11 12 11.66E-12
c2 6 7 25.00E-12
dc 5 53 dx
de 54 5 dx
dlp 90 91 dx
dln 92 90 dx
dp 4 3 dx
egnd 99 0 poly(2),(3,0),(4,0) 0 .5 .5
fb 7 99 poly(5) vb vc ve vlp vln 0 127.3E9 -130E9 130E9 130E9 -130E9
ga 6 0 11 12 157.1E-6
gcm 0 6 10 99 24.93E-9
iss 10 4 dc 45.00E-6
hlim 90 0 vlim 1K
j1 11 2 10 jx
j2 12 1 10 jx
r2 6 9 100.0E3
rd1 3 11 6.366E3
rd2 3 12 6.366E3
ro1 8 5 50.00E-3
ro2 7 99 50.00E-3
rp 3 4 176.5E3
rss 10 99 4.444E6
vb 9 0 dc 0
vc 3 53 dc 2
ve 54 4 dc 2
vlim 7 8 dc 0
vlp 91 0 dc 15
vln 0 92 dc 15
.model dx D(Is=800.0E-18)
.model jx NJF(Is=2.500E-12 Beta=548.3E-6 Vto=-1)
.ends
*$
*-----------------------------------------------------------------------------
* connections: non-inverting input
* | inverting input
* | | positive power supply
* | | | negative power supply
* | | | | output
* | | | | |
.subckt AD648B 1 2 3 4 5
*
c1 11 12 11.66E-12
c2 6 7 25.00E-12
dc 5 53 dx
de 54 5 dx
dlp 90 91 dx
dln 92 90 dx
dp 4 3 dx
egnd 99 0 poly(2),(3,0),(4,0) 0 .5 .5
fb 7 99 poly(5) vb vc ve vlp vln 0 127.3E9 -130E9 130E9 130E9 -130E9
ga 6 0 11 12 157.1E-6
gcm 0 6 10 99 12.47E-9
iss 10 4 dc 45.00E-6
hlim 90 0 vlim 1K
j1 11 2 10 jx
j2 12 1 10 jx
r2 6 9 100.0E3
rd1 3 11 6.366E3
rd2 3 12 6.366E3
ro1 8 5 50.00E-3
ro2 7 99 50.00E-3
rp 3 4 176.5E3
rss 10 99 4.444E6
vb 9 0 dc 0
vc 3 53 dc 2
ve 54 4 dc 2
vlim 7 8 dc 0
vlp 91 0 dc 15
vln 0 92 dc 15
.model dx D(Is=800.0E-18)
.model jx NJF(Is=1.500E-12 Beta=548.3E-6 Vto=-1)
.ends
*$
*-----------------------------------------------------------------------------
* connections: non-inverting input
* | inverting input
* | | positive power supply
* | | | negative power supply
* | | | | output
* | | | | |
.subckt AD648C 1 2 3 4 5
*
c1 11 12 11.66E-12
c2 6 7 25.00E-12
dc 5 53 dx
de 54 5 dx
dlp 90 91 dx
dln 92 90 dx
dp 4 3 dx
egnd 99 0 poly(2),(3,0),(4,0) 0 .5 .5
fb 7 99 poly(5) vb vc ve vlp vln 0 127.3E9 -130E9 130E9 130E9 -130E9
ga 6 0 11 12 157.1E-6
gcm 0 6 10 99 7.854E-9
iss 10 4 dc 45.00E-6
hlim 90 0 vlim 1K
j1 11 2 10 jx
j2 12 1 10 jx
r2 6 9 100.0E3
rd1 3 11 6.366E3
rd2 3 12 6.366E3
ro1 8 5 50.00E-3
ro2 7 99 50.00E-3
rp 3 4 176.5E3
rss 10 99 4.444E6
vb 9 0 dc 0
vc 3 53 dc 2
ve 54 4 dc 2
vlim 7 8 dc 0
vlp 91 0 dc 15
vln 0 92 dc 15
.model dx D(Is=800.0E-18)
.model jx NJF(Is=1.500E-12 Beta=548.3E-6 Vto=-1)
.ends
*$
*-----------------------------------------------------------------------------
* connections: non-inverting input
* | inverting input
* | | positive power supply
* | | | negative power supply
* | | | | output
* | | | | |
.subckt ad741 1 2 3 4 5
*
c1 11 12 2.645E-12
c2 6 7 30.00E-12
dc 5 53 dx
de 54 5 dx
dlp 90 91 dx
dln 92 90 dx
dp 4 3 dx
egnd 99 0 poly(2),(3,0),(4,0) 0 .5 .5
fb 7 99 poly(5) vb vc ve vlp vln 0 16.32E6 -16E6 16E6 16E6 -16E6
ga 6 0 11 12 188.5E-6
gcm 0 6 10 99 5.961E-9
iee 10 4 dc 15.16E-6
hlim 90 0 vlim 1K
q1 11 2 13 qx
q2 12 1 14 qx
r2 6 9 100.0E3
rc1 3 11 5.305E3
rc2 3 12 5.305E3
re1 13 10 1.837E3
re2 14 10 1.837E3
ree 10 99 13.19E6
ro1 8 5 45
ro2 7 99 65
rp 3 4 18.16E3
vb 9 0 dc 0
vc 3 53 dc 1
ve 54 4 dc 1
vlim 7 8 dc 0
vlp 91 0 dc 25
vln 0 92 dc 25
.model dx D(Is=800.0E-18)
.model qx NPN(Is=800.0E-18 Bf=93.75)
.ends
*$
*
* MANUFACTURERS PART NO. = HA2-2600-8 (HARRIS)
* SUBTYPE:OP_AMP
* THIS FILE CONTAINS A PRE-RAD TEMPERATURE DEPENDENT MODEL OF THE HA2-
* 2600.
* THIS MODEL INCLUDES PARAMETERS WHICH THE MICROSIM-BOYLE MODEL DID NOT.
*
* IT MODELS POWER-UP, POWER-DOWN, AND POWER OFF CONDITIONS,
* SINGLE SUPPLY APPLICATIONS, AC PSRR, DC PSRR, AC CMRR, VSAT, IIB, IIO,
* VIO, ISC, SR, PM, GBP, ICC, AND RO(AC).
*-----------------------------------------------------------------------------
* THE FOLLOWING SPECIFICATIONS ARE SIMULATED IN THE MODEL FOR +/-15 V
* SUPPLIES:
* VIO = 0.85 MV, VSAT = +13 V, VSAT- = -14 V, IB+ = 2 NA, IB- = -1.3 NA,
* GBP = 12.4MHZ, PM = 46 DEG, CMRR = 107 DB, RO(AC) = 39 OHMS, ISC+ = 3 MA
* ISC- = -28 MA, SR+ = 7.5 V/US, SR- = -6.4 V/US
*
* MODIFIED SPECS:
* DC PSRR = 100 DB, AC PSRR MODELED; ISUPPLY = IBIAS + ILOAD, VSAT VARIES WITH
* SUPPLY VOLTAGES, ALSO MODELS SINGLE SUPPLY APPLICATIONS; E.G. VCC+ = 5 V,
* VCC- = 0 V, VSAT+ = 3 V, VSAT- = 5 MV; POWER NOT CONNECTED MODELED; POWER-
* UP AND POWER-DOWN MODELED. INPUT BIAS CURRENT CAN BE + OR -.
*
* THIS MODEL CAN BE USED WITH A .TEMP CARD OVER THE TEMPERATURE RANGE
* OF -55 C TO 125 C.
*
* THE FOLLOWING PARAMETERS ARE INSENSITIVE TO TEMPERATURE CHANGES AND
* ARE SIMULATED ACCURATELY BY THE MODEL: CMRR GAIN ICC PSRR SR
* OVERDRIVE RECOVERY TIME OUTPUT VOLTAGE SWING IIB IIO
*
* THE FOLLOWING PARAMETERS ARE TEMPERATURE DEPENDENT AND ARE
* SIMULATED BY THE MODEL: ISC VIO
*
*
* CONNECTIONS: NON-INVERTING INPUT
* | INVERTING INPUT
* | | POSITIVE POWER SUPPLY
* | | | NEGATIVE POWER SUPPLY
* | | | | OUTPUT
* | | | | | GND(REFERENCE)
* | | | | | |
.SUBCKT HA-2600 1 2 3A 4A 5 100
*
* DC PSRR FIX
Q1 11 16 13 HA2600QA
EPSRR- 16 2 TABLE {-V(4)} = (0,150U) (20,-50U)
Q2 12 15 14 HA2600QB
EPSRR+ 1 15 TABLE {V(3)} = (0,150U) (20,-50U)
*
*INPUT CURRENT COMPENSATION
IBX1 100 16 6.3N
IBX2 100 15 2.99N
*
RC1 3 11 1276
RC2 3 12 1276
C1 11 12 6.6519P
RE1 13 10 573
RE2 14 10 573
GIEE 10 4 TABLE {V(3,4)} = (0,0) (2,0) (3,73.6U)
CE 10 100 1.464P
RE 10 100 2.717MEG
RP 3 4 9913
*
* CMRR FIX
GCM1 100 83 10 100 1
RCM1 83 84 1
LCM1 84 100 1.592U
GCM2 100 85 83 100 1
RCM2 85 86 1
LCM2 86 100 0.1592U
RCM3 86 100 10
GCM 100 21 85 100 3.5N
*
GA 21 100 11 12 783.7U
*
* PSRR VS FREQ FIX
GPSRR- 21 100 88 100 1
GVP- 100 88 4 100 1
RVP- 88 100 1
LVP- 88 100 10P
GPSRR+ 21 100 89 100 1
GVP+ 100 89 3 100 1
RVP+ 89 100 1
LVP+ 89 100 0.1P
*
R2 21 100 100K
C2 21 22 10P
GB 22 100 21 100 1359
RO2 22 100 41
D1 22 31 HA2600DA
D2 31 22 HA2600DC
EC 31 100 5 100 1.0
*
* I(VCC) FIX
RO1 22 6 39
VIOUT 6 5 0
D5 3 7 HA2600DB
R5 7 100 1MEG
F5 7 100 VIOUT 1
D6 8 4 HA2600DB
R6 8 100 1MEG
F6 8 100 VIOUT 1
*
* POWER OFF FIX
VIVP+ 3A 3
WVP+ 3 3B VIVP+ CL1
VIVP- 4 4A
WVP- 4 4B VIVP- CL1
.MODEL CL1 ISWITCH(
+ RON = 0.1
+ ROFF = 10MEG
+ ION = 0.5U
+ IOFF = 1N
+ )
*
* CLIPPING FIX
D3 5 24 HA2600DB
EVC 3B 24 TABLE {V(3)} = (0,0.81089) (5,2.81089)
D4 25 5 HA2600DB
EVE 25 4B TABLE {-V(4)} = (0,0.80648) (5,1.80648)
*
.MODEL HA2600DA D (
+ IS = 1.8E-18
+ RS = 0
+ N = 1
+ TT = 0
+ CJO = 0
+ VJ = 1
+ M = .5
+ EG = 1.11
+ XTI = 3
+ KF = 0
+ AF = 1
+ FC = .5
+ BV = 9.9999E+13
+ IBV = 1E-10
+ ISR = 0
+ NR = 2
+ IKF = 9.9999E+13
+ NBV = 1
+ IBVL = 0
+ NBVL = 1
+ TIKF = 0
+ TBV1 = 0
+ TBV2 = 0
+ TRS1 = 0
+ TRS2 = 0
+ )
.MODEL HA2600DC D (
+ IS = 4.581F
+ RS = 0
+ N = 1
+ TT = 0
+ CJO = 0
+ VJ = 1
+ M = .5
+ EG = 1.11
+ XTI = 3
+ KF = 0
+ AF = 1
+ FC = .5
+ BV = 9.9999E+13
+ IBV = 1E-10
+ ISR = 0
+ NR = 2
+ IKF = 9.9999E+13
+ NBV = 1
+ IBVL = 0
+ NBVL = 1
+ TIKF = 0
+ TBV1 = 0
+ TBV2 = 0
+ TRS1 = 0
+ TRS2 = 0
+ )
.MODEL HA2600DB D (
+ IS = 0.8F
+ RS = 0
+ N = 1
+ TT = 0
+ CJO = 0
+ VJ = 1
+ M = .5
+ EG = 1.11
+ XTI = 3
+ KF = 0
+ AF = 1
+ FC = .5
+ BV = 9.9999E+13
+ IBV = 1E-10
+ ISR = 0
+ NR = 2
+ IKF = 9.9999E+13
+ NBV = 1
+ IBVL = 0
+ NBVL = 1
+ TIKF = 0
+ TBV1 = 0
+ TBV2 = 0
+ TRS1 = 0
+ TRS2 = 0
+ )
.MODEL HA2600QA NPN (
+ IS = 0.827F
+ BF = 7360
+ NF = 1
+ VAF = 9.9999E+13
+ IKF = 9.9999E+13
+ ISE = 0
+ NE = 1.5
+ BR = 1
+ NR = 1
+ VAR = 9.9999E+13
+ IKR = 9.9999E+13
+ ISC = 0
+ NC = 2
+ RB = 0
+ IRB = 9.9999E+13
+ RBM = 0
+ RE = 0
+ RC = 0
+ CJE = 0
+ VJE = .75
+ MJE = .33
+ TF = 0
+ XTF = 0
+ VTF = 9.9999E+13
+ ITF = 0
+ PTF = 0
+ CJC = 0
+ VJC = .75
+ MJC = .33
+ XCJC = 1
+ TR = 0
+ CJS = 0
+ VJS = .75
+ MJS = 0
+ XTB = 0
+ EG = 1.11
+ XTI = 3
+ KF = 0
+ AF = 1
+ FC = .5
+ NK = .5
+ ISS = 0
+ NS = 1
+ QCO = 0
+ RCO = 0
+ VO = 10
+ GAMMA = 1E-11
+ TRE1 = 0
+ TRE2 = 0
+ TRB1 = 0
+ TRB2 = 0
+ TRM1 = 0
+ TRM2 = 0
+ TRC1 = 0
+ TRC2 = 0
+ )
.MODEL HA2600QB NPN (
+ IS = 0.8F
+ BF = 7360
+ NF = 1
+ VAF = 9.9999E+13
+ IKF = 9.9999E+13
+ ISE = 0
+ NE = 1.5
+ BR = 1
+ NR = 1
+ VAR = 9.9999E+13
+ IKR = 9.9999E+13
+ ISC = 0
+ NC = 2
+ RB = 0
+ IRB = 9.9999E+13
+ RBM = 0
+ RE = 0
+ RC = 0
+ CJE = 0
+ VJE = .75
+ MJE = .33
+ TF = 0
+ XTF = 0
+ VTF = 9.9999E+13
+ ITF = 0
+ PTF = 0
+ CJC = 0
+ VJC = .75
+ MJC = .33
+ XCJC = 1
+ TR = 0
+ CJS = 0
+ VJS = .75
+ MJS = 0
+ XTB = 0
+ EG = 1.11
+ XTI = 3
+ KF = 0
+ AF = 1
+ FC = .5
+ NK = .5
+ ISS = 0
+ NS = 1
+ QCO = 0
+ RCO = 0
+ VO = 10
+ GAMMA = 1E-11
+ TRE1 = 0
+ TRE2 = 0
+ TRB1 = 0
+ TRB2 = 0
+ TRM1 = 0
+ TRM2 = 0
+ TRC1 = 0
+ TRC2 = 0
+ )
.ENDS HA-2600
*$
*
* MANUFACTURERS PART NO. = HA7-2720-8 (HARRIS)
* SUBTYPE: OP_AMP
* THIS FILE CONTAINS 1 PRE-RAD MODEL AT 27 C OF THE HA7-2720.
*
*
* THIS MACROMODEL IS DERIVED FROM A MODIFIED BOYLE MACROMODEL STRUCTURE.
*
* PARAMETERS THAT VARY WITH ISET INCLUDE: GAIN BANDWIDTH PRODUCT; POWER
* DISSIPATED; CMRR; SHORT CIRCUIT CURRENT; SLEW RATE; OUTPUT RESISTANCE
*
.SUBCKT HA-2720 1 2 3 4 5 27 100
* +IN | | | | | |
* -IN | | | | |
* +VCC | | | |
* -VCC | | |
* OUT | |
* ISET |
* GND(REFERENCE)
C1 11 12 0.8P
C2 6 7 10P
DC 5 53 DX
DE 54 5 DX
DLP 90 91 DX
DLN 92 90 DX
DP 4 3 DX
EGND 99 100 POLY(2) (3,100) (4,100) 0 0.5 0.5
FB 7 99 POLY(5) VB VC VE VLP VLN 0 1.061E9 -9E8 1E9 1E9 -1E9
GA 6 100 11 12 9.425U
GCM 100 6 10 99 298P
FIEE 10 4 VSET 0.667
HLIM 90 100 VLIM 10K
Q1 11 2 13 QX
Q2 12 1 14 QX
R2 6 9 10K
RC1 3 11 106.1K
RC2 3 12 106.1K
RE1 13 10 54.4K
RE2 14 10 54.4K
REE 10 99 200MEG
RO1 8 5 10
RO2 7 99 10
VB 9 100 DC 0
VC 3 53 DC 1
VE 54 4 DC 1
VLIM 7 8 DC 0
VLP 91 89 DC 0
VLN 88 92 DC 0
*
* ADDITIONAL MODEL COMPONENTS
*
D1 3 25 DX
D2 25 26 DX
VSET 26 27 DC 0
FDISP 3 4 VSET 13
HLP 89 100 VSET 3.33MEG
HLN 100 88 VSET 3.33MEG
*
.MODEL DX D(
+ IS = 800E-18
+ RS = 1
+ N = 1
+ TT = 0
+ CJO = 0
+ VJ = 1
+ M = .5
+ EG = 1.11
+ XTI = 3
+ KF = 0
+ AF = 1
+ FC = .5
+ BV = 9.9999E+13
+ IBV = .001
+ )
.MODEL QX NPN(
+ IS = 800E-18
+ BF = 250
+ NF = 1
+ VAF = 9.9999E+13
+ IKF = 9.9999E+13
+ ISE = 0
+ NE = 1.5
+ BR = 1
+ NR = 1
+ VAR = 9.9999E+13
+ IKR = 9.9999E+13
+ ISC = 0
+ NC = 2
+ RB = 0
+ IRB = 9.9999E+13
+ RBM = 0
+ RE = 0
+ RC = 0
+ CJE = 0
+ VJE = .75
+ MJE = .33
+ TF = 0
+ XTF = 0
+ VTF = 9.9999E+13
+ ITF = 0
+ PTF = 0
+ CJC = 0
+ VJC = .75
+ MJC = .33
+ XCJC = 1
+ TR = 0
+ CJS = 0
+ VJS = .75
+ MJS = 0
+ XTB = 0
+ EG = 1.11
+ XTI = 3
+ KF = 0
+ AF = 1
+ FC = .5
+ )
.ENDS HA-2720
*$
*
* MANUFACTURERS PART NO. = HA5154/883 (HARRIS)
* SUBTYPE: OP_AMP
* THIS FILE CONTAINS A PRE-RAD TEMPERATURE DEPENDENT MODEL OF THE HA5154.
*
* IT MODELS POWER-UP, POWER-DOWN, AND POWER OFF CONDITIONS,
* SINGLE SUPPLY APPLICATIONS, AC PSRR, DC PSRR, AC CMRR, VSAT, IIB, IIO,
* VIO, ISC, SR, PM, GBP, ICC, AND RO(AC).
*----------------------------------------------------------------------------
* THE FOLLOWING SPECIFICATIONS ARE SIMULATED IN THE MODEL FOR +/-15 V
* SUPPLIES:
* VIO = 0.4 MV, VSAT = +13.5 V, VSAT- = -13.8 V,IB+ = 113.5 NA,IB- = -111.6NA
* GBP = 1.26MHZ, PM = 78 DEG, CMRR = 102 DB, RO(AC) = 317 OHMS, ISC+ = 8.8 MA
* ISC- = -3.4 MA, SR+ = 6.66 V/US, SR- = -7.4 V/US
*
* MODIFIED SPECS:
* DC PSRR = 100 DB, AC PSRR MODELED; ISUPPLY = IBIAS + ILOAD, VSAT VARIES WITH
* SUPPLY VOLTAGES, ALSO MODELS SINGLE SUPPLY APPLICATIONS; E.G. VCC+ = 5 V,
* VCC- = 0 V, VSAT+ = 3 V, VSAT- = 5 MV; POWER NOT CONNECTED MODELED; POWER-
* UP AND POWER-DOWN MODELED. INPUT BIAS CURRENT CAN BE + OR -.
*
* THIS MODEL CAN BE USED WITH A .TEMP CARD OVER THE TEMPERATURE RANGE
* OF -55 C TO 125 C.
*
* THE FOLLOWING PARAMETERS ARE INSENSITIVE TO TEMPERATURE CHANGES AND
* ARE SIMULATED ACCURATELY BY THE MODEL: CMRR GAIN ICC PSRR SR
* OVERDRIVE RECOVERY TIME OUTPUT VOLTAGE SWING IIB IIO
*
* THE FOLLOWING PARAMETERS ARE TEMPERATURE DEPENDENT AND ARE
* SIMULATED BY THE MODEL: ISC VIO
*
*
* CONNECTIONS: NON-INVERTING INPUT
* | INVERTING INPUT
* | | POSITIVE POWER SUPPLY
* | | | NEGATIVE POWER SUPPLY
* | | | | OUTPUT
* | | | | | GND(REFERENCE)
* | | | | | |
.SUBCKT HA-5154 1 2 3A 4A 5A 100
*
* DC PSRR FIX
Q1 11 16 13 HA5154QA
EPSRR- 16 2 TABLE {-V(4)} = (0,150U) (20,-50U)
Q2 12 15 14 HA5154QB
EPSRR+ 1 15 TABLE {V(3)} = (0,150U) (20,-50U)
*
*INPUT CURRENT COMPENSATION
IBX1 16 100 186N
IBX2 15 100 188N
*
RC1 4 11 12.25K
RC2 4 12 12.25K
C1 11 12 1.072P
RE1 13 10 11.56K
RE2 14 10 11.56K
GIEE 3 10 TABLE {V(3,4)} = (0,0) (2,0) (3,75U)
CE 10 100 0.838P
RE 10 100 2.67MEG
*
* SUPPLY CURRENT FOR 1/4 CURRENT OF IC.
* PLACE AN RP IN PARALLEL FOR EACH UNUSED OPAMP ON IC.
*
RP 3 4 171K
*
* CMRR FIX
GCM1 100 83 10 100 1
RCM1 83 84 1
LCM1 84 100 15.92U
GCM2 100 85 83 100 1
RCM2 85 86 1
LCM2 86 100 1.592U
RCM3 86 100 10
GCM 100 21 85 100 0.648N
*
GA 21 100 11 12 81.63U
*
* PSRR VS FREQ FIX
GPSRR- 21 100 88 100 1
GVP- 100 88 4 100 1
RVP- 88 100 1
LVP- 88 100 0.10P
GPSRR+ 21 100 89 100 1
GVP+ 100 89 3 100 1
RVP+ 89 100 1
LVP+ 89 100 10P
*
R2 21 100 100K
C2 21 22 10P
GB 22 100 21 100 297.89
RO2 22 100 83
D1 22 31 HA5154DA
D2 31 22 HA5154DC
EC 31 100 5 100 1.0
*
* I(VCC) FIX
RO1 22 6 217
VIOUT 6 5 0
D5 3 7 HA5154DB
R5 7 100 1MEG
F5 7 100 VIOUT 1
D6 8 4 HA5154DB
R6 8 100 1MEG
F6 8 100 VIOUT 1
*
*EXTERNAL RO AT VO
RO3 5 5A 100
*
* POWER OFF FIX
VIVP+ 3A 3
WVP+ 3 3B VIVP+ CL1
VIVP- 4 4A
WVP- 4 4B VIVP- CL1
.MODEL CL1 ISWITCH(
+ RON = 0.1
+ ROFF = 50MEG
+ ION = 0.5U
+ IOFF = 1N
+ )
*
* CLIPPING FIX
D3 5 24 HA5154DB
EVC 3B 24 TABLE {V(3)} = (0,0.77655) (3,2.17655)
D4 25 5 HA5154DB
EVE 25 4B TABLE {-V(4)} = (0,0.751956) (3,1.751956)
*
.MODEL HA5154DA D (
+ IS = 19.02E-30
+ RS = 0
+ N = 1
+ TT = 0
+ CJO = 0
+ VJ = 1
+ M = .5
+ EG = 1.11
+ XTI = 3
+ KF = 0
+ AF = 1
+ FC = .5
+ BV = 9.9999E+13
+ IBV = 1E-10
+ ISR = 0
+ NR = 2
+ IKF = 9.9999E+13
+ NBV = 1
+ IBVL = 0
+ NBVL = 1
+ TIKF = 0
+ TBV1 = 0
+ TBV2 = 0
+ TRS1 = 0
+ TRS2 = 0
+ )
.MODEL HA5154DC D (
+ IS = 908.77P
+ RS = 0
+ N = 1
+ TT = 0
+ CJO = 0
+ VJ = 1
+ M = .5
+ EG = 1.11
+ XTI = 3
+ KF = 0
+ AF = 1
+ FC = .5
+ BV = 9.9999E+13
+ IBV = 1E-10
+ ISR = 0
+ NR = 2
+ IKF = 9.9999E+13
+ NBV = 1
+ IBVL = 0
+ NBVL = 1
+ TIKF = 0
+ TBV1 = 0
+ TBV2 = 0
+ TRS1 = 0
+ TRS2 = 0
+ )
.MODEL HA5154DB D (
+ IS = 0.8F
+ RS = 0
+ N = 1
+ TT = 0
+ CJO = 0
+ VJ = 1
+ M = .5
+ EG = 1.11
+ XTI = 3
+ KF = 0
+ AF = 1
+ FC = .5
+ BV = 9.9999E+13
+ IBV = 1E-10
+ ISR = 0
+ NR = 2
+ IKF = 9.9999E+13
+ NBV = 1
+ IBVL = 0
+ NBVL = 1
+ TIKF = 0
+ TBV1 = 0
+ TBV2 = 0
+ TRS1 = 0
+ TRS2 = 0
+ )
.MODEL HA5154QA NPN (
+ IS = 0.7879F
+ BF = 500
+ NF = 1
+ VAF = 9.9999E+13
+ IKF = 9.9999E+13
+ ISE = 0
+ NE = 1.5
+ BR = 1
+ NR = 1
+ VAR = 9.9999E+13
+ IKR = 9.9999E+13
+ ISC = 0
+ NC = 2
+ RB = 0
+ IRB = 9.9999E+13
+ RBM = 0
+ RE = 0
+ RC = 0
+ CJE = 0
+ VJE = .75
+ MJE = .33
+ TF = 0
+ XTF = 0
+ VTF = 9.9999E+13
+ ITF = 0
+ PTF = 0
+ CJC = 0
+ VJC = .75
+ MJC = .33
+ XCJC = 1
+ TR = 0
+ CJS = 0
+ VJS = .75
+ MJS = 0
+ XTB = 0
+ EG = 1.11
+ XTI = 3
+ KF = 0
+ AF = 1
+ FC = .5
+ NK = .5
+ ISS = 0
+ NS = 1
+ QCO = 0
+ RCO = 0
+ VO = 10
+ GAMMA = 1E-11
+ TRE1 = 0
+ TRE2 = 0
+ TRB1 = 0
+ TRB2 = 0
+ TRM1 = 0
+ TRM2 = 0
+ TRC1 = 0
+ TRC2 = 0
+ )
.MODEL HA5154QB NPN (
+ IS = 0.8F
+ BF = 500
+ NF = 1
+ VAF = 9.9999E+13
+ IKF = 9.9999E+13
+ ISE = 0
+ NE = 1.5
+ BR = 1
+ NR = 1
+ VAR = 9.9999E+13
+ IKR = 9.9999E+13
+ ISC = 0
+ NC = 2
+ RB = 0
+ IRB = 9.9999E+13
+ RBM = 0
+ RE = 0
+ RC = 0
+ CJE = 0
+ VJE = .75
+ MJE = .33
+ TF = 0
+ XTF = 0
+ VTF = 9.9999E+13
+ ITF = 0
+ PTF = 0
+ CJC = 0
+ VJC = .75
+ MJC = .33
+ XCJC = 1
+ TR = 0
+ CJS = 0
+ VJS = .75
+ MJS = 0
+ XTB = 0
+ EG = 1.11
+ XTI = 3
+ KF = 0
+ AF = 1
+ FC = .5
+ NK = .5
+ ISS = 0
+ NS = 1
+ QCO = 0
+ RCO = 0
+ VO = 10
+ GAMMA = 1E-11
+ TRE1 = 0
+ TRE2 = 0
+ TRB1 = 0
+ TRB2 = 0
+ TRM1 = 0
+ TRM2 = 0
+ TRC1 = 0
+ TRC2 = 0
+ )
.ENDS HA-5154
*$
*
* MANUFACTURERS PART NO. = HS3516RH (HARRIS)
* SUBTYPE:OP_AMP
* THIS FILE CONTAINS A PRE-RAD TEMPERATURE DEPENDENT MODEL OF THE HS3516.
*
* IT MODELS POWER-UP, POWER-DOWN, AND POWER OFF CONDITIONS,
* SINGLE SUPPLY APPLICATIONS, AC PSRR, DC PSRR, AC CMRR, VSAT, IIB, IIO,
* VIO, ISC, SR, PM, GBP, ICC, AND RO(AC). THE VOLTAGE CLAMPING PIN HAS
* BEEN MODELED. IT HAS BEEN COMMENTED OUT WITH THE * SYMBOL BECAUSE IT
* CAN CAUSE CONVERGENCE PROBLEMS. TO ADD TO THE MODEL ADD PIN 9 ON THE
*.SUBCKT LINE AND REMOVE THE * FROM THE LINES DEFINING THE CLAMP PIN IN THE
* MODEL. IF IT CAUSES A CONVERGENCE PROBLEM USE ITL4=300 IN THE .OPTION
* STATEMENT.
*-----------------------------------------------------------------------------
* THE FOLLOWING SPECIFICATIONS ARE SIMULATED IN THE MODEL FOR +/-15 V
* SUPPLIES:
* VIO = 0.52 MV, VSAT = +13.5 V, VSAT- = -12.6 V, IB = 14.8 NA, IIO = -6 NA
* GBP = 11MHZ, PM = 47 DEG, CMRR = 107 DB, RO(AC) = 30 OHMS, ISC+ = 26 MA
* ISC- = -27 MA, SR+ = 23.4 V/US, SR- = -21 V/US
*
* MODIFIED SPECS:
* DC PSRR = 100 DB, AC PSRR MODELED; ISUPPLY = IBIAS + ILOAD, VSAT VARIES WITH
* SUPPLY VOLTAGES, ALSO MODELS SINGLE SUPPLY APPLICATIONS; E.G. VCC+ = 5 V,
* VCC- = 0 V, VSAT+ = 3 V, VSAT- = 5 MV; POWER NOT CONNECTED MODELED; POWER-
* UP AND POWER-DOWN MODELED.
*
* THIS MODEL CAN BE USED WITH A .TEMP CARD OVER THE TEMPERATURE RANGE
* OF -55 C TO 125 C.
*
* THE FOLLOWING PARAMETERS ARE INSENSITIVE TO TEMPERATURE CHANGES AND
* ARE SIMULATED ACCURATELY BY THE MODEL: CMRR GAIN ICC PSRR SR
* OVERDRIVE RECOVERY TIME OUTPUT VOLTAGE SWING IIB IIO
*
* THE FOLLOWING PARAMETERS ARE TEMPERATURE DEPENDENT AND ARE
* SIMULATED BY THE MODEL: ISC VIO
*
*
* CONNECTIONS: NON-INVERTING INPUT
* | INVERTING INPUT
* | | POSITIVE POWER SUPPLY
* | | | NEGATIVE POWER SUPPLY
* | | | | OUTPUT
* | | | | | VCLAMP
* | | | | | | GND(REFERENCE)
* | | | | | | |
.SUBCKT HS3516 1 2 3A 4A 5 100
*
* DC PSRR FIX
Q1 11 16 13 HS3516QA
EPSRR- 16 2 TABLE {-V(4)} = (0,150U) (20,-50U)
Q2 12 15 14 HS3516QB
EPSRR+ 1 15 TABLE {V(3)} = (0,150U) (20,-50U)
*
RC1 3 11 1.447K
RC2 3 12 1.447K
C1 11 12 6.11P
RE1 13 10 1.222K
RE2 14 10 1.222K
GIEE 10 4 TABLE {V(3,4)} = (0,0) (2,0) (3,230U)
CE 10 100 0.952P
RE 10 100 869K
RP 3 4 6.289K
*
* CMRR FIX
GCM1 100 83 10 100 1
RCM1 83 84 1
LCM1 84 100 1.592U
GCM2 100 85 83 100 1
RCM2 85 86 1
LCM2 86 100 0.1592U
RCM3 86 100 10
GCM 100 21 85 100 3.087N
*
GA 21 100 11 12 691U
*
* PSRR VS FREQ FIX
GPSRR- 21 100 88 100 1
GVP- 100 88 4 100 1
RVP- 88 100 1
LVP- 88 100 0.1P
GPSRR+ 21 100 89 100 1
GVP+ 100 89 3 100 1
RVP+ 89 100 1
LVP+ 89 100 10P
*
R2 21 100 100K
C2 21 22 10P
GB 22 100 21 100 362.6
*
* VOLTAGE CLAMP
*RCL 9 100 100K
*VICL1 9 53
*VICL2 54 53
*RVOUT 54 55 10K
*EOUT 55 100 5 100 1
*WCL3 54 56 VICL3 CL
*RX 56 100 100K
*ICL+ 56 100 4M
*WCL4 54 57 VICL4 CL
*RY 57 100 100K
*ICL- 100 57 4M
*ECL1 47 100 9 100 1
*WCL1 47 48 VICL1 CL
*D8 48 49 SMX10114DD
*.MODEL SMX10114DD D (IS=1.075U)
*VICL3 49 6
*ECL2 52 100 9 100 1
*WCL2 52 51 VICL2 CL
*D9 50 51 SMX10114DE
*.MODEL SMX10114DE D (IS=15.28N)
*VICL4 6 50
*.MODEL CL ISWITCH (ION=2U IOFF=0 RON=1 ROFF=0.1MEG)
*
* END OF VCLAMP SECTION
RO2 22 100 20
D1 22 31 HS3516DA
D2 31 22 HS3516DC
EC 31 100 5 100 1.0
*
* I(VCC) FIX
RO1 22 6 30
VIOUT 6 5 0
D5 3 7 HS3516DB
R5 7 100 1MEG
F5 7 100 VIOUT 1
D6 8 4 HS3516DB
R6 8 100 1MEG
F6 8 100 VIOUT 1
*
* POWER OFF FIX
VIVP+ 3A 3
WVP+ 3 3B VIVP+ CL1
VIVP- 4 4A
WVP- 4 4B VIVP- CL1
.MODEL CL1 ISWITCH(
+ RON = 0.1
+ ROFF = 0.079MEG
+ ION = 0.5U
+ IOFF = 1N
+ )
*
* CLIPPING FIX
D3 5 24 HS3516DB
EVC 3B 24 TABLE {V(3)} = (0,0.805) (5,2.255) (10,2.305)
D4 25 5 HS3516DB
EVE 25 4B TABLE {-V(4)} = (0,0.806) (5,3.179) (10,3.226)
*
.MODEL HS3516DA D (
+ IS = 191E-12
+ RS = 0
+ N = 1
+ TT = 0
+ CJO = 0
+ VJ = 1
+ M = .5
+ EG = 1.11
+ XTI = 3
+ KF = 0
+ AF = 1
+ FC = .5
+ BV = 9.9999E+13
+ IBV = 1E-10
+ ISR = 0
+ NR = 2
+ IKF = 9.9999E+13
+ NBV = 1
+ IBVL = 0
+ NBVL = 1
+ TIKF = 0
+ TBV1 = 0
+ TBV2 = 0
+ TRS1 = 0
+ TRS2 = 0
+ )
.MODEL HS3516DC D (
+ IS = 45.32E-12
+ RS = 0
+ N = 1
+ TT = 0
+ CJO = 0
+ VJ = 1
+ M = .5
+ EG = 1.11
+ XTI = 3
+ KF = 0
+ AF = 1
+ FC = .5
+ BV = 9.9999E+13
+ IBV = 1E-10
+ ISR = 0
+ NR = 2
F+ IKF = 9.9999E+13
+ NBV = 1
+ IBVL = 0
+ NBVL = 1
+ TIKF = 0
+ TBV1 = 0
+ TBV2 = 0
+ TRS1 = 0
+ TRS2 = 0
+ )
.MODEL HS3516DB D (
+ IS = 0.8F
+ RS = 0
+ N = 1
+ TT = 0
+ CJO = 0
+ VJ = 1
+ M = .5
+ EG = 1.11
+ XTI = 3
+ KF = 0
+ AF = 1
+ FC = .5
+ BV = 9.9999E+13
+ IBV = 1E-10
+ ISR = 0
+ NR = 2
+ IKF = 9.9999E+13
+ NBV = 1
+ IBVL = 0
+ NBVL = 1
+ TIKF = 0
+ TBV1 = 0
+ TBV2 = 0
+ TRS1 = 0
+ TRS2 = 0
+ )
.MODEL HS3516QA NPN (
+ IS = 0.816F
+ BF = 6446
+ NF = 1
+ VAF = 9.9999E+13
+ IKF = 9.9999E+13
+ ISE = 0
+ NE = 1.5
+ BR = 1
+ NR = 1
+ VAR = 9.9999E+13
+ IKR = 9.9999E+13
+ ISC = 0
+ NC = 2
+ RB = 0
+ IRB = 9.9999E+13
+ RBM = 0
+ RE = 0
+ RC = 0
+ CJE = 0
+ VJE = .75
+ MJE = .33
+ TF = 0
+ XTF = 0
+ VTF = 9.9999E+13
+ ITF = 0
+ PTF = 0
+ CJC = 0
+ VJC = .75
+ MJC = .33
+ XCJC = 1
+ TR = 0
+ CJS = 0
+ VJS = .75
+ MJS = 0
+ XTB = 0
+ EG = 1.11
+ XTI = 3
+ KF = 0
+ AF = 1
+ FC = .5
+ NK = .5
+ ISS = 0
+ NS = 1
+ QCO = 0
+ RCO = 0
+ VO = 10
+ GAMMA = 1E-11
+ TRE1 = 0
+ TRE2 = 0
+ TRB1 = 0
+ TRB2 = 0
+ TRM1 = 0
+ TRM2 = 0
+ TRC1 = 0
+ TRC2 = 0
+ )
.MODEL HS3516QB NPN (
+ IS = 0.8F
+ BF = 9729
+ NF = 1
+ VAF = 9.9999E+13
+ IKF = 9.9999E+13
+ ISE = 0
+ NE = 1.5
+ BR = 1
+ NR = 1
+ VAR = 9.9999E+13
+ IKR = 9.9999E+13
+ ISC = 0
+ NC = 2
+ RB = 0
+ IRB = 9.9999E+13
+ RBM = 0
+ RE = 0
+ RC = 0
+ CJE = 0
+ VJE = .75
+ MJE = .33
+ TF = 0
+ XTF = 0
+ VTF = 9.9999E+13
+ ITF = 0
+ PTF = 0
+ CJC = 0
+ VJC = .75
+ MJC = .33
+ XCJC = 1
+ TR = 0
+ CJS = 0
+ VJS = .75
+ MJS = 0
+ XTB = 0
+ EG = 1.11
+ XTI = 3
+ KF = 0
+ AF = 1
+ FC = .5
+ NK = .5
+ ISS = 0
+ NS = 1
+ QCO = 0
+ RCO = 0
+ VO = 10
+ GAMMA = 1E-11
+ TRE1 = 0
+ TRE2 = 0
+ TRB1 = 0
+ TRB2 = 0
+ TRM1 = 0
+ TRM2 = 0
+ TRC1 = 0
+ TRC2 = 0
+ )
.ENDS HS3516
*$
*-----------------------------------------------------------------------------
* connections: non-inverting input
* | inverting input
* | | positive power supply
* | | | negative power supply
* | | | | output
* | | | | |
.subckt LF411 1 2 3 4 5
*
c1 11 12 4.196E-12
c2 6 7 10.00E-12
css 10 99 1.333E-12
dc 5 53 dx
de 54 5 dx
dlp 90 91 dx
dln 92 90 dx
dp 4 3 dx
egnd 99 0 poly(2),(3,0),(4,0) 0 .5 .5
fb 7 99 poly(5) vb vc ve vlp vln 0 31.83E6 -30E6 30E6 30E6 -30E6
ga 6 0 11 12 251.4E-6
gcm 0 6 10 99 2.514E-9
iss 10 4 dc 170.0E-6
hlim 90 0 vlim 1K
j1 11 2 10 jx
j2 12 1 10 jx
r2 6 9 100.0E3
rd1 3 11 3.978E3
rd2 3 12 3.978E3
ro1 8 5 50
ro2 7 99 25
rp 3 4 15.00E3
rss 10 99 1.176E6
vb 9 0 dc 0
vc 3 53 dc 1.500
ve 54 4 dc 1.500
vlim 7 8 dc 0
vlp 91 0 dc 25
vln 0 92 dc 25
.model dx D(Is=800.0E-18 Rs=1m)
.model jx NJF(Is=12.50E-12 Beta=743.3E-6 Vto=-1)
.ends
*$
*-----------------------------------------------------------------------------
* connections: non-inverting input
* | inverting input
* | | positive power supply
* | | | negative power supply
* | | | | output
* | | | | |
.subckt LF412 1 2 3 4 5
*
x_lf412 1 2 3 4 5 LF411
.ends

*$
*-----------------------------------------------------------------------------
* connections: non-inverting input
* | inverting input
* | | positive power supply
* | | | negative power supply
* | | | | output
* | | | | | compensation
* | | | | | / \
.subckt LM101A 1 2 3 4 5 6 7
*
c1 11 12 8.661E-12
dc 5 53 dx
de 54 5 dx
dlp 90 91 dx
dln 92 90 dx
dp 4 3 dx
egnd 99 0 poly(2),(3,0),(4,0) 0 .5 .5
fb 7 99 poly(5) vb vc ve vlp vln 0 37.73E6 -40E6 40E6 40E6 -40E6
ga 6 0 11 12 188.5E-6
gcm 0 6 10 99 2.988E-9
iee 10 4 dc 15.06E-6
hlim 90 0 vlim 1K
q1 11 2 13 qx
q2 12 1 14 qx
r2 6 9 100.0E3
rc1 3 11 5.305E3
rc2 3 12 5.305E3
re1 13 10 1.849E3
re2 14 10 1.849E3
ree 10 99 13.28E6
ro1 8 5 50
ro2 7 99 25
rp 3 4 15.11E3
vb 9 0 dc 0
vc 3 53 dc 1
ve 54 4 dc 1
vlim 7 8 dc 0
vlp 91 0 dc 25
vln 0 92 dc 25
.model dx D(Is=800.0E-18 Rs=1)
.model qx NPN(Is=800.0E-18 Bf=250)
.ends
*$
*-----------------------------------------------------------------------------
* connections: non-inverting input
* | inverting input
* | | positive power supply
* | | | negative power supply
* | | | | output
* | | | | | compensation
* | | | | | / \
.subckt LM108 1 2 3 4 5 6 7
*
c1 11 12 5.460E-12
dc 5 53 dx
de 54 5 dx
dlp 90 91 dx
dln 92 90 dx
dp 4 3 dx
egnd 99 0 poly(2),(3,0),(4,0) 0 .5 .5
fb 7 99 poly(5) vb vc ve vlp vln 0 83.87E6 -80E6 80E6 80E6 -80E6
ga 6 0 11 12 150.8E-6
gcm 0 6 10 99 1.508E-9
iee 10 4 dc 18.00E-6
hlim 90 0 vlim 1K
q1 11 2 13 qx
q2 12 1 14 qx
r2 6 9 100.0E3
rc1 3 11 6.631E3
rc2 3 12 6.631E3
re1 13 10 3.757E3
re2 14 10 3.757E3
ree 10 99 11.11E6
ro1 8 5 50
ro2 7 99 25
rp 3 4 106.4E3
vb 9 0 dc 0
vc 3 53 dc 1
ve 54 4 dc 1
vlim 7 8 dc 0
vlp 91 0 dc 6
vln 0 92 dc 6
.model dx D(Is=800.0E-18 Rs=1)
.model qx NPN(Is=800.0E-18 Bf=11.25E3)
.ends
*$
*-----------------------------------------------------------------------------
* connections: non-inverting input
* | inverting input
* | | positive power supply
* | | | negative power supply
* | | | | output
* | | | | |
.subckt LM118 1 2 3 4 5
*
c1 11 12 2.887E-12
c2 6 7 20.00E-12
dc 5 53 dx
de 54 5 dx
dlp 90 91 dx
dln 92 90 dx
dp 4 3 dx
egnd 99 0 poly(2),(3,0),(4,0) 0 .5 .5
fb 7 99 poly(5) vb vc ve vlp vln 0 636.5E3 -600E3 600E3 600E3 -600E3
ga 6 0 11 12 12.57E-3
gcm 0 6 10 99 125.7E-9
iee 10 4 dc 1.400E-3
hlim 90 0 vlim 1K
q1 11 2 13 qx
q2 12 1 14 qx
r2 6 9 100.0E3
rc1 3 11 79.57
rc2 3 12 79.57
re1 13 10 42.61
re2 14 10 42.61
ree 10 99 142.8E3
ro1 8 5 50
ro2 7 99 25
rp 3 4 9.678E3
vb 9 0 dc 0
vc 3 53 dc 2
ve 54 4 dc 2
vlim 7 8 dc 0
vlp 91 0 dc 22
vln 0 92 dc 22
.model dx D(Is=800.0E-18 Rs=1)
.model qx NPN(Is=800.0E-18 Bf=5.833E3)
.ends
*$
*-----------------------------------------------------------------------------
* connections: non-inverting input
* | inverting input
* | | positive power supply
* | | | negative power supply
* | | | | output
* | | | | |
.subckt LM124 1 2 3 4 5
*
c1 11 12 2.887E-12
c2 6 7 30.00E-12
dc 5 53 dx
de 54 5 dx
dlp 90 91 dx
dln 92 90 dx
dp 4 3 dx
egnd 99 0 poly(2),(3,0),(4,0) 0 .5 .5
fb 7 99 poly(5) vb vc ve vlp vln 0 21.22E6 -20E6 20E6 20E6 -20E6
ga 6 0 11 12 188.5E-6
gcm 0 6 10 99 10.60E-9
iee 3 10 dc 15.09E-6
hlim 90 0 vlim 1K
q1 11 2 13 qx
q2 12 1 14 qx
r2 6 9 100.0E3
rc1 4 11 5.305E3
rc2 4 12 5.305E3
re1 13 10 1.845E3
re2 14 10 1.845E3
ree 10 99 13.25E6
ro1 8 5 50
ro2 7 99 25
rp 3 4 9.082E3
vb 9 0 dc 0
vc 3 53 dc 1.500
ve 54 4 dc 0.65
vlim 7 8 dc 0
vlp 91 0 dc 40
vln 0 92 dc 40
.model dx D(Is=800.0E-18 Rs=1)
.model qx PNP(Is=800.0E-18 Bf=166.7)
.ends
*$
*
* MANUFACTURERS PART NO. = LM124W (TEXAS INSTRUMENTS)
* SUBTYPE: OP_AMP
* THIS FILE CONTAINS A PRE-RAD MODEL OF THE LM124
* WHICH HAS BEEN VERIFIED FOR USE WITH A .TEMP CARD.
* THIS MODEL MAY BE USED FOR ALL OF THE FOLLOWING DEVICES :
* LM124
* LM124J
* LM124W
*
* THE FOLLOWING MODEL WAS DERIVED USING MEASURED DATA.
*
* THIS MODEL CAN BE USED WITH A .TEMP CARD OVER THE TEMPERATURE RANGE
* OF -55 C TO 125 C.
* THE FOLLOWING PARAMETERS ARE INSENSITIVE TO TEMPERATURE CHANGES AND
* ARE SIMULATED ACCURATELY BY THE MODEL: CMRR GAIN PSRR OUTPUT
* VOLTAGE SWING HIGH LEVEL ONLY
*
* THE FOLLOWING PARAMETERS ARE NOT SIMULATED BY THE MODEL OVER
* TEMPERATURE: IIB ICC GBW OUTPUT VOLTAGE SWING LOW LEVEL
*
* THIS MODEL DOES NOT SIMULATE VOS (INPUT OFFSET VOLTAGE) OR IOS (INPUT
* OFFSET CURRENT).
*
* CONNECTIONS: NON-INVERTING INPUT
* | INVERTING INPUT
* | | POSITIVE POWER SUPPLY
* | | | NEGATIVE POWER SUPPLY
* | | | | OUTPUT
* | | | | | GND(REFERENCE)
.SUBCKT LM124A 1 2 3 4 5 100
*
C1 11 12 2.887E-12
C2 6 7 30.00E-12
DC 5 53 DX
DE 54 5 DX
DLP 90 91 DX
DLN 92 90 DX
DP 4 3 DX
EGND 99 100 POLY(2) (3,100) (4,100) 0 .5 .5
FB 7 99 POLY(5) VB VC VE VLP VLN 0 21.22E6 -20E6 20E6 20E6 -20E6
GA 6 100 11 12 188.5E-6
GCM 100 6 10 99 10.60E-9
IEE 3 10 DC 15.09E-6
HLIM 90 100 VLIM 1K
Q1 11 2 13 QX
Q2 12 1 14 QX
R2 6 9 100.0E3
RC1 4 11 5.305E3
RC2 4 12 5.305E3
RE1 13 10 1.845E3
RE2 14 10 1.845E3
REE 10 99 13.25E6
RO1 8 5 50
RO2 7 99 25
RP 3 4 9.082E3
VB 9 100 DC 0
VC 3 53 DC 1.500
VE 54 4 DC 0
VLIM 7 8 DC 0
VLP 91 100 DC 40
VLN 100 92 DC 40
.MODEL DX D(
+ IS = 800.0E-18
+ RS = 1
+ N = 1
+ TT = 0
+ CJO = 0
+ VJ = 1
+ M = .5
+ EG = 1.11
+ XTI = 3
+ KF = 0
+ AF = 1
+ FC = .5
+ BV = 9.9999E+13
+ IBV = .001
+ )
.MODEL QX PNP(
+ IS = 800.0E-18
+ BF = 166.7
+ NF = 1
+ VAF = 9.9999E+13
+ IKF = 9.9999E+13
+ ISE = 0
+ NE = 1.5
+ BR = 1
+ NR = 1
+ VAR = 9.9999E+13
+ IKR = 9.9999E+13
+ ISC = 0
+ NC = 2
+ RB = 0
+ IRB = 9.9999E+13
+ RBM = 0
+ RE = 0
+ RC = 0
+ CJE = 0
+ VJE = .75
+ MJE = .33
+ TF = 0
+ XTF = 0
+ VTF = 9.9999E+13
+ ITF = 0
+ PTF = 0
+ CJC = 0
+ VJC = .75
+ MJC = .33
+ XCJC = 1
+ TR = 0
+ CJS = 0
+ VJS = .75
+ MJS = 0
+ XTB = 0
+ EG = 1.11
+ XTI = 3
+ KF = 0
+ AF = 1
+ FC = .5
+ )
.ENDS LM124A
*$
*
* MANUFACTURERS PART NO. = LM124W (TEXAS INSTRUMENTS)
* SUBTYPE: OP_AMP
* THIS FILE CONTAINS A PRE-RAD TEMPERATURE DEPENDENT MODEL OF THE LM124.
* THIS MODEL MAY BE USED FOR ALL OF THE FOLLOWING DEVICES :
* LM124
* LM124J
* LM124W
*
*
* IT MODELS POWER-UP, POWER-DOWN, AND POWER OFF CONDITIONS,
* SINGLE SUPPLY APPLICATIONS, AC PSRR, DC PSRR, AC CMRR, VSAT, IIB, IIO,
* VIO, ISC, SR, PM, GBP, ICC, AND RO(AC).
*-----------------------------------------------------------------------------