* Library of Linear Technology definitions

* Copyright 1989, 1990 Linear Technology Corporation
*   Neither this library nor any part may be copied without the express
*   written consent of Linear Technology Corporation

* $Revision:   1.5  $
* $Author:   mk  $
* $Date:   27 Apr 1992 16:24:58  $

*-----------------------------------------------------------------------------
*
* This library of macromodels is being supplied to users as an aid to circuit
* designs.  While it reflects reasonably close similarity to the actual device
* in terms of performance, it is not suggested as a replacement for
* breadboarding.  Simulation should be used as a forerunner or a supplement to
* traditional lab testing.
*
* Users should very carefully note the following factors regarding these
* models:
*
*	Model performance in general will reflect typical baseline specs for a
*	given device, and certain aspects of performance may not be modeled
*	fully.
*
*	While reasonable care has been taken in their preparation, we cannot
*	be responsible for correct application on any and all computer
*	systems.
*
*	Model users are hereby notified that these models are supplied
*	"as is", with no direct or implied responsibility on the part of LTC
*	for their operation within a customer circuit or system.  Further,
*	Linear Technology Corporation reserves the right to change these
*	models without prior notice.
*
*	In all cases, the current data sheet information for a given real
*	device is your final design guideline, and is the only actual
*	performance guarantee.  For further technical information, refer to
*	individual device data sheets.
*
* Your feedback and suggestions on these (and future) models will be
* appreciated!
*
* Linear Technology Corporation
* 1630 McCarthy Blvd.
* Milpitas, CA, 95035
* (408) 432-1900

*-----------------------------------------------------------------------------
* Linear Technology LF155 op amp model
* Written: 05-10-1990 18:16:50 Type: PFET input, internal comp.
* Typical specs:
* Vos=2.0E-03, Ib=3.0E-11, Ios=3.0E-12, GBP=2.5E+06Hz, Phase mar.= 45 deg,
* SR(low)=7.0E+00V/us, SR(high)=1.4E+01V/us, Av=106.0dB, CMRR=100.0dB,
* Vsat(+)=2.0V, Vsat(-)=2.0V, Isc=+/-25mA, Rout= 100ohms, Iq= 2mA.
* (input cm clamp *optional*)
*
* Connections:   + - V+V-O
.subckt LF155/LT 3 2 7 4 6
* input
vcm2 40  4  2.0000E+00
rd1 40  80 2.1221E+03
rd2 40  90 2.1221E+03
j1  80 102 12 jm1
j2  90 103 12 jm2
cin 2  3  4.0000E-12
rg1 2  102 2.0000E+00
rg2 3  103 2.0000E+00
** cm clamp
* dcm1 107 103 dm4
* dcm2 105 107 dm4
* vcmc 105 4   4.0E+00
* ecmp 106 4   103 4  1
* rcmp 107 106 1E+04
* dcm3 109 102 dm4
* dcm4 105 109 dm4
* ecmn 108 4   102 4  1
* rcmn 109 108 1E+04
** end cm clamp
c1  80 90 1.5000E-11
iss 7  12 2.8000E-04
gosit 7  12 90  80  1.4000E-04
* intermediate
gcm 0  8  12 0  4.7124E-09
ga  8  0  80 90 4.7124E-04
r2  8  0  1.0000E+05
c2  1  8  3.0000E-11
gb  1  0  8  0  4.2768E+01
ro2 1  0  9.9000E+01
* output
rso 1  6  1.0000E+00
ecl 18 0  1  6  2.0124E+01
gcl 0  8  20 0  1.0000E+00
rcl 20 0  1.0000E+03
d1  18 20 dm1
d2  20 18 dm1
*
d3a 131 70 dm3
d3b 13 131 dm3
gpl 0  8  70 7  1.0000E+00
vc  13 6  3.1403E+00
rpla 7  70 1.0000E+04
rplb 7  131 1.0000E+05
d4a 60 141 dm3
d4b 141 14  dm3
gnl 0  8  60 4  1.0000E+00
ve  6  14 3.1403E+00
rnla 60 4  1.0000E+04
rnlb 141 4  1.0000E+05
*
ip  7  4  1.7200E-03
dsub 4  7  dm2
* models
.model jm1 pjf (is=3.1500E-11 beta=3.9655E-04 vto=-1.000000E+00)
.model jm2 pjf (is=2.8500E-11 beta=3.9655E-04 vto=-9.980000E-01)
.model dm1  d   (is=1.0000E-15)
.model dm2  d   (is=8.0000E-16 bv=5.2800E+01)
.model dm3  d   (is=1.0000E-16)
.model dm4  d   (is=1.0000E-09)
.ends
*-----------------------------------------------------------------------------
* Linear Technology LF155A op amp model
* Written: 05-10-1990 18:19:48 Type: PFET input, internal comp.
* Typical specs:
* Vos=1.0E-03, Ib=3.0E-11, Ios=3.0E-12, GBP=2.5E+06Hz, Phase mar.= 45 deg,
* SR(low)=7.0E+00V/us, SR(high)=1.4E+01V/us, Av=106.0dB, CMRR=100.0dB,
* Vsat(+)=2.0V, Vsat(-)=2.0V, Isc=+/-25mA, Rout= 100ohms, Iq= 2mA.
* (input cm clamp *optional*)
*
* Connections:    + - V+V-O
.subckt LF155A/LT 3 2 7 4 6
* input
vcm2 40  4  2.0000E+00
rd1 40  80 2.1221E+03
rd2 40  90 2.1221E+03
j1  80 102 12 jm1
j2  90 103 12 jm2
cin 2  3  4.0000E-12
rg1 2  102 2.0000E+00
rg2 3  103 2.0000E+00
** cm clamp
* dcm1 107 103 dm4
* dcm2 105 107 dm4
* vcmc 105 4   4.0E+00
* ecmp 106 4   103 4  1
* rcmp 107 106 1E+04
* dcm3 109 102 dm4
* dcm4 105 109 dm4
* ecmn 108 4   102 4  1
* rcmn 109 108 1E+04
** end cm clamp
c1  80 90 1.5000E-11
iss 7  12 2.8000E-04
gosit 7  12 90  80  1.4000E-04
* intermediate
gcm 0  8  12 0  4.7124E-09
ga  8  0  80 90 4.7124E-04
r2  8  0  1.0000E+05
c2  1  8  3.0000E-11
gb  1  0  8  0  4.2768E+01
ro2 1  0  9.9000E+01
* output
rso 1  6  1.0000E+00
ecl 18 0  1  6  2.0124E+01
gcl 0  8  20 0  1.0000E+00
rcl 20 0  1.0000E+03
d1  18 20 dm1
d2  20 18 dm1
*
d3a 131 70 dm3
d3b 13 131 dm3
gpl 0  8  70 7  1.0000E+00
vc  13 6  3.1403E+00
rpla 7  70 1.0000E+04
rplb 7  131 1.0000E+05
d4a 60 141 dm3
d4b 141 14  dm3
gnl 0  8  60 4  1.0000E+00
ve  6  14 3.1403E+00
rnla 60 4  1.0000E+04
rnlb 141 4  1.0000E+05
*
ip  7  4  1.7200E-03
dsub 4  7  dm2
* models
.model jm1 pjf (is=3.1500E-11 beta=3.9655E-04 vto=-1.000000E+00)
.model jm2 pjf (is=2.8500E-11 beta=3.9655E-04 vto=-9.990000E-01)
.model dm1  d   (is=1.0000E-15)
.model dm2  d   (is=8.0000E-16 bv=5.2800E+01)
.model dm3  d   (is=1.0000E-16)
.model dm4  d   (is=1.0000E-09)
.ends
*-----------------------------------------------------------------------------
* Linear Technology LF156 op amp model
* Written: 05-10-1990 18:26:49 Type: PFET input, internal comp.
* Typical specs:
* Vos=2.0E-03, Ib=3.0E-11, Ios=3.0E-12, GBP=5.0E+06Hz, Phase mar.= 45 deg,
* SR(low)=1.2E+01V/us, SR(high)=2.4E+01V/us, Av=106.0dB, CMRR=100.0dB,
* Vsat(+)=2.0V, Vsat(-)=2.0V, Isc=+/-25mA, Rout=  75ohms, Iq= 5mA.
* (input cm clamp *optional*)
*
* Connections:   + - V+V-O
.subckt LF156/LT 3 2 7 4 6
* input
vcm2 40  4  2.0000E+00
rd1 40  80 1.0610E+03
rd2 40  90 1.0610E+03
j1  80 102 12 jm1
j2  90 103 12 jm2
cin 2  3  4.0000E-12
rg1 2  102 2.0000E+00
rg2 3  103 2.0000E+00
** cm clamp
* dcm1 107 103 dm4
* dcm2 105 107 dm4
* vcmc 105 4   4.0E+00
* ecmp 106 4   103 4  1
* rcmp 107 106 1E+04
* dcm3 109 102 dm4
* dcm4 105 109 dm4
* ecmn 108 4   102 4  1
* rcmn 109 108 1E+04
** end cm clamp
c1  80 90 1.5000E-11
iss 7  12 4.8000E-04
gosit 7  12 90  80  2.4000E-04
* intermediate
gcm 0  8  12 0  9.4248E-09
ga  8  0  80 90 9.4248E-04
r2  8  0  1.0000E+05
c2  1  8  3.0000E-11
gb  1  0  8  0  2.8609E+01
ro2 1  0  7.4000E+01
* output
rso 1  6  1.0000E+00
ecl 18 0  1  6  2.0690E+01
gcl 0  8  20 0  1.0000E+00
rcl 20 0  1.0000E+03
d1  18 20 dm1
d2  20 18 dm1
*
d3a 131 70 dm3
d3b 13 131 dm3
gpl 0  8  70 7  1.0000E+00
vc  13 6  3.1552E+00
rpla 7  70 1.0000E+04
rplb 7  131 1.0000E+05
d4a 60 141 dm3
d4b 141 14  dm3
gnl 0  8  60 4  1.0000E+00
ve  6  14 3.1552E+00
rnla 60 4  1.0000E+04
rnlb 141 4  1.0000E+05
*
ip  7  4  4.5200E-03
dsub 4  7  dm2
* models
.model jm1 pjf (is=3.1500E-11 beta=9.2528E-04 vto=-1.000000E+00)
.model jm2 pjf (is=2.8500E-11 beta=9.2528E-04 vto=-9.980000E-01)
.model dm1  d   (is=1.0000E-15)
.model dm2  d   (is=8.0000E-16 bv=5.2800E+01)
.model dm3  d   (is=1.0000E-16)
.model dm4  d   (is=1.0000E-09)
.ends
*-----------------------------------------------------------------------------
* Linear Technology LF156A op amp model
* Written: 05-10-1990 18:28:18 Type: PFET input, internal comp.
* Typical specs:
* Vos=1.0E-03, Ib=3.0E-11, Ios=3.0E-12, GBP=5.0E+06Hz, Phase mar.= 45 deg,
* SR(low)=1.2E+01V/us, SR(high)=2.4E+01V/us, Av=106.0dB, CMRR=100.0dB,
* Vsat(+)=2.0V, Vsat(-)=2.0V, Isc=+/-25mA, Rout=  75ohms, Iq= 5mA.
* (input cm clamp *optional*)
*
* Connections:    + - V+V-O
.subckt LF156A/LT 3 2 7 4 6
* input
vcm2 40  4  2.0000E+00
rd1 40  80 1.0610E+03
rd2 40  90 1.0610E+03
j1  80 102 12 jm1
j2  90 103 12 jm2
cin 2  3  4.0000E-12
rg1 2  102 2.0000E+00
rg2 3  103 2.0000E+00
** cm clamp
* dcm1 107 103 dm4
* dcm2 105 107 dm4
* vcmc 105 4   4.0E+00
* ecmp 106 4   103 4  1
* rcmp 107 106 1E+04
* dcm3 109 102 dm4
* dcm4 105 109 dm4
* ecmn 108 4   102 4  1
* rcmn 109 108 1E+04
** end cm clamp
c1  80 90 1.5000E-11
iss 7  12 4.8000E-04
gosit 7  12 90  80  2.4000E-04
* intermediate
gcm 0  8  12 0  9.4248E-09
ga  8  0  80 90 9.4248E-04
r2  8  0  1.0000E+05
c2  1  8  3.0000E-11
gb  1  0  8  0  2.8609E+01
ro2 1  0  7.4000E+01
* output
rso 1  6  1.0000E+00
ecl 18 0  1  6  2.0690E+01
gcl 0  8  20 0  1.0000E+00
rcl 20 0  1.0000E+03
d1  18 20 dm1
d2  20 18 dm1
*
d3a 131 70 dm3
d3b 13 131 dm3
gpl 0  8  70 7  1.0000E+00
vc  13 6  3.1552E+00
rpla 7  70 1.0000E+04
rplb 7  131 1.0000E+05
d4a 60 141 dm3
d4b 141 14  dm3
gnl 0  8  60 4  1.0000E+00
ve  6  14 3.1552E+00
rnla 60 4  1.0000E+04
rnlb 141 4  1.0000E+05
*
ip  7  4  4.5200E-03
dsub 4  7  dm2
* models
.model jm1 pjf (is=3.1500E-11 beta=9.2528E-04 vto=-1.000000E+00)
.model jm2 pjf (is=2.8500E-11 beta=9.2528E-04 vto=-9.990000E-01)
.model dm1  d   (is=1.0000E-15)
.model dm2  d   (is=8.0000E-16 bv=5.2800E+01)
.model dm3  d   (is=1.0000E-16)
.model dm4  d   (is=1.0000E-09)
.ends
*-----------------------------------------------------------------------------
* Linear Technology LF355 op amp model
* Written: 05-10-1990 18:12:34 Type: PFET input, internal comp.
* Typical specs:
* Vos=3.0E-03, Ib=3.0E-11, Ios=3.0E-12, GBP=2.5E+06Hz, Phase mar.= 45 deg,
* SR(low)=6.0E+00V/us, SR(high)=1.2E+01V/us, Av=106.0dB, CMRR=100.0dB,
* Vsat(+)=2.0V, Vsat(-)=2.0V, Isc=+/-25mA, Rout= 100ohms, Iq= 2mA.
* (input cm clamp *optional*)
*
* Connections:   + - V+V-O
.subckt LF355/LT 3 2 7 4 6
* input
vcm2 40  4  2.0000E+00
rd1 40  80 2.1221E+03
rd2 40  90 2.1221E+03
j1  80 102 12 jm1
j2  90 103 12 jm2
cin 2  3  4.0000E-12
rg1 2  102 2.0000E+00
rg2 3  103 2.0000E+00
** cm clamp
* dcm1 107 103 dm4
* dcm2 105 107 dm4
* vcmc 105 4   4.0E+00
* ecmp 106 4   103 4  1
* rcmp 107 106 1E+04
* dcm3 109 102 dm4
* dcm4 105 109 dm4
* ecmn 108 4   102 4  1
* rcmn 109 108 1E+04
** end cm clamp
c1  80 90 1.5000E-11
iss 7  12 2.4000E-04
gosit 7  12 90  80  1.2000E-04
* intermediate
gcm 0  8  12 0  4.7124E-09
ga  8  0  80 90 4.7124E-04
r2  8  0  1.0000E+05
c2  1  8  3.0000E-11
gb  1  0  8  0  4.2768E+01
ro2 1  0  9.9000E+01
* output
rso 1  6  1.0000E+00
ecl 18 0  1  6  1.9963E+01
gcl 0  8  20 0  1.0000E+00
rcl 20 0  1.0000E+03
d1  18 20 dm1
d2  20 18 dm1
*
d3a 131 70 dm3
d3b 13 131 dm3
gpl 0  8  70 7  1.0000E+00
vc  13 6  3.1360E+00
rpla 7  70 1.0000E+04
rplb 7  131 1.0000E+05
d4a 60 141 dm3
d4b 141 14  dm3
gnl 0  8  60 4  1.0000E+00
ve  6  14 3.1360E+00
rnla 60 4  1.0000E+04
rnlb 141 4  1.0000E+05
*
ip  7  4  1.7600E-03
dsub 4  7  dm2
* models
.model jm1 pjf (is=3.1500E-11 beta=4.6264E-04 vto=-1.000000E+00)
.model jm2 pjf (is=2.8500E-11 beta=4.6264E-04 vto=-9.970000E-01)
.model dm1  d   (is=1.0000E-15)
.model dm2  d   (is=8.0000E-16 bv=4.3200E+01)
.model dm3  d   (is=1.0000E-16)
.model dm4  d   (is=1.0000E-09)
.ends
*-----------------------------------------------------------------------------
* Linear Technology LF355A op amp model
* Written: 05-10-1990 18:14:53 Type: PFET input, internal comp.
* Typical specs:
* Vos=1.0E-03, Ib=3.0E-11, Ios=3.0E-12, GBP=2.5E+06Hz, Phase mar.= 45 deg,
* SR(low)=7.0E+00V/us, SR(high)=1.4E+01V/us, Av=106.0dB, CMRR=100.0dB,
* Vsat(+)=2.0V, Vsat(-)=2.0V, Isc=+/-25mA, Rout= 100ohms, Iq= 2mA.
* (input cm clamp *optional*)
*
* Connections:    + - V+V-O
.subckt LF355A/LT 3 2 7 4 6
* input
vcm2 40  4  2.0000E+00
rd1 40  80 2.1221E+03
rd2 40  90 2.1221E+03
j1  80 102 12 jm1
j2  90 103 12 jm2
cin 2  3  4.0000E-12
rg1 2  102 2.0000E+00
rg2 3  103 2.0000E+00
** cm clamp
* dcm1 107 103 dm4
* dcm2 105 107 dm4
* vcmc 105 4   4.0E+00
* ecmp 106 4   103 4  1
* rcmp 107 106 1E+04
* dcm3 109 102 dm4
* dcm4 105 109 dm4
* ecmn 108 4   102 4  1
* rcmn 109 108 1E+04
** end cm clamp
c1  80 90 1.5000E-11
iss 7  12 2.8000E-04
gosit 7  12 90  80  1.4000E-04
* intermediate
gcm 0  8  12 0  4.7124E-09
ga  8  0  80 90 4.7124E-04
r2  8  0  1.0000E+05
c2  1  8  3.0000E-11
gb  1  0  8  0  4.2768E+01
ro2 1  0  9.9000E+01
* output
rso 1  6  1.0000E+00
ecl 18 0  1  6  2.0124E+01
gcl 0  8  20 0  1.0000E+00
rcl 20 0  1.0000E+03
d1  18 20 dm1
d2  20 18 dm1
*
d3a 131 70 dm3
d3b 13 131 dm3
gpl 0  8  70 7  1.0000E+00
vc  13 6  3.1403E+00
rpla 7  70 1.0000E+04
rplb 7  131 1.0000E+05
d4a 60 141 dm3
d4b 141 14  dm3
gnl 0  8  60 4  1.0000E+00
ve  6  14 3.1403E+00
rnla 60 4  1.0000E+04
rnlb 141 4  1.0000E+05
*
ip  7  4  1.7200E-03
dsub 4  7  dm2
* models
.model jm1 pjf (is=3.1500E-11 beta=3.9655E-04 vto=-1.000000E+00)
.model jm2 pjf (is=2.8500E-11 beta=3.9655E-04 vto=-9.990000E-01)
.model dm1  d   (is=1.0000E-15)
.model dm2  d   (is=8.0000E-16 bv=5.2800E+01)
.model dm3  d   (is=1.0000E-16)
.model dm4  d   (is=1.0000E-09)
.ends
*-----------------------------------------------------------------------------
* Linear Technology LF356 op amp model
* Written: 05-10-1990 18:23:43 Type: PFET input, internal comp.
* Typical specs:
* Vos=3.0E-03, Ib=3.0E-11, Ios=3.0E-12, GBP=5.0E+06Hz, Phase mar.= 45 deg,
* SR(low)=1.2E+01V/us, SR(high)=2.4E+01V/us, Av=106.0dB, CMRR=100.0dB,
* Vsat(+)=2.0V, Vsat(-)=2.0V, Isc=+/-25mA, Rout=  75ohms, Iq= 5mA.
* (input cm clamp *optional*)
*
* Connections:   + - V+V-O
.subckt LF356/LT 3 2 7 4 6
* input
vcm2 40  4  2.0000E+00
rd1 40  80 1.0610E+03
rd2 40  90 1.0610E+03
j1  80 102 12 jm1
j2  90 103 12 jm2
cin 2  3  4.0000E-12
rg1 2  102 2.0000E+00
rg2 3  103 2.0000E+00
** cm clamp
* dcm1 107 103 dm4
* dcm2 105 107 dm4
* vcmc 105 4   4.0E+00
* ecmp 106 4   103 4  1
* rcmp 107 106 1E+04
* dcm3 109 102 dm4
* dcm4 105 109 dm4
* ecmn 108 4   102 4  1
* rcmn 109 108 1E+04
** end cm clamp
c1  80 90 1.5000E-11
iss 7  12 4.8000E-04
gosit 7  12 90  80  2.4000E-04
* intermediate
gcm 0  8  12 0  9.4248E-09
ga  8  0  80 90 9.4248E-04
r2  8  0  1.0000E+05
c2  1  8  3.0000E-11
gb  1  0  8  0  2.8609E+01
ro2 1  0  7.4000E+01
* output
rso 1  6  1.0000E+00
ecl 18 0  1  6  2.0690E+01
gcl 0  8  20 0  1.0000E+00
rcl 20 0  1.0000E+03
d1  18 20 dm1
d2  20 18 dm1
*
d3a 131 70 dm3
d3b 13 131 dm3
gpl 0  8  70 7  1.0000E+00
vc  13 6  3.1552E+00
rpla 7  70 1.0000E+04
rplb 7  131 1.0000E+05
d4a 60 141 dm3
d4b 141 14  dm3
gnl 0  8  60 4  1.0000E+00
ve  6  14 3.1552E+00
rnla 60 4  1.0000E+04
rnlb 141 4  1.0000E+05
*
ip  7  4  4.5200E-03
dsub 4  7  dm2
* models
.model jm1 pjf (is=3.1500E-11 beta=9.2528E-04 vto=-1.000000E+00)
.model jm2 pjf (is=2.8500E-11 beta=9.2528E-04 vto=-9.970000E-01)
.model dm1  d   (is=1.0000E-15)
.model dm2  d   (is=8.0000E-16 bv=4.3200E+01)
.model dm3  d   (is=1.0000E-16)
.model dm4  d   (is=1.0000E-09)
.ends
*-----------------------------------------------------------------------------
* Linear Technology LF356A op amp model
* Written: 05-10-1990 18:25:11 Type: PFET input, internal comp.
* Typical specs:
* Vos=1.0E-03, Ib=3.0E-11, Ios=3.0E-12, GBP=5.0E+06Hz, Phase mar.= 45 deg,
* SR(low)=1.2E+01V/us, SR(high)=2.4E+01V/us, Av=106.0dB, CMRR=100.0dB,
* Vsat(+)=2.0V, Vsat(-)=2.0V, Isc=+/-25mA, Rout=  75ohms, Iq= 5mA.
* (input cm clamp *optional*)
*
* Connections:    + - V+V-O
.subckt LF356A/LT 3 2 7 4 6
* input
vcm2 40  4  2.0000E+00
rd1 40  80 1.0610E+03
rd2 40  90 1.0610E+03
j1  80 102 12 jm1
j2  90 103 12 jm2
cin 2  3  4.0000E-12
rg1 2  102 2.0000E+00
rg2 3  103 2.0000E+00
** cm clamp
* dcm1 107 103 dm4
* dcm2 105 107 dm4
* vcmc 105 4   4.0E+00
* ecmp 106 4   103 4  1
* rcmp 107 106 1E+04
* dcm3 109 102 dm4
* dcm4 105 109 dm4
* ecmn 108 4   102 4  1
* rcmn 109 108 1E+04
** end cm clamp
c1  80 90 1.5000E-11
iss 7  12 4.8000E-04
gosit 7  12 90  80  2.4000E-04
* intermediate
gcm 0  8  12 0  9.4248E-09
ga  8  0  80 90 9.4248E-04
r2  8  0  1.0000E+05
c2  1  8  3.0000E-11
gb  1  0  8  0  2.8609E+01
ro2 1  0  7.4000E+01
* output
rso 1  6  1.0000E+00
ecl 18 0  1  6  2.0690E+01
gcl 0  8  20 0  1.0000E+00
rcl 20 0  1.0000E+03
d1  18 20 dm1
d2  20 18 dm1
*
d3a 131 70 dm3
d3b 13 131 dm3
gpl 0  8  70 7  1.0000E+00
vc  13 6  3.1552E+00
rpla 7  70 1.0000E+04
rplb 7  131 1.0000E+05
d4a 60 141 dm3
d4b 141 14  dm3
gnl 0  8  60 4  1.0000E+00
ve  6  14 3.1552E+00
rnla 60 4  1.0000E+04
rnlb 141 4  1.0000E+05
*
ip  7  4  4.5200E-03
dsub 4  7  dm2
* models
.model jm1 pjf (is=3.1500E-11 beta=9.2528E-04 vto=-1.000000E+00)
.model jm2 pjf (is=2.8500E-11 beta=9.2528E-04 vto=-9.990000E-01)
.model dm1  d   (is=1.0000E-15)
.model dm2  d   (is=8.0000E-16 bv=5.2800E+01)
.model dm3  d   (is=1.0000E-16)
.model dm4  d   (is=1.0000E-09)
.ends
*-----------------------------------------------------------------------------
* Linear Technology LF412 op amp model
* Written: 05-10-1990 18:34:44 Type: PFET input, internal comp.
* Typical specs:
* Vos=5.0E-04, Ib=2.0E-11, Ios=1.5E-11, GBP=5.5E+06Hz, Phase mar.= 45 deg,
* SR(low)=1.3E+01V/us, SR(high)=2.6E+01V/us, Av=108.0dB, CMRR=100.0dB,
* Vsat(+)=2.0V, Vsat(-)=2.0V, Isc=+/-25mA, Rout= 100ohms, Iq= 2mA.
* (input cm clamp *optional*)
*
* Connections:   + - V+V-O
.subckt LF412/LT 3 2 7 4 6
* input
vcm2 40  4  2.0000E+00
rd1 40  80 9.6458E+02
rd2 40  90 9.6458E+02
j1  80 102 12 jm1
j2  90 103 12 jm2
cin 2  3  4.0000E-12
rg1 2  102 2.0000E+00
rg2 3  103 2.0000E+00
** cm clamp
* dcm1 107 103 dm4
* dcm2 105 107 dm4
* vcmc 105 4   4.0E+00
* ecmp 106 4   103 4  1
* rcmp 107 106 1E+04
* dcm3 109 102 dm4
* dcm4 105 109 dm4
* ecmn 108 4   102 4  1
* rcmn 109 108 1E+04
** end cm clamp
c1  80 90 1.5000E-11
iss 7  12 5.2000E-04
gosit 7  12 90  80  2.6000E-04
* intermediate
gcm 0  8  12 0  1.0367E-08
ga  8  0  80 90 1.0367E-03
r2  8  0  1.0000E+05
c2  1  8  3.0000E-11
gb  1  0  8  0  2.4474E+01
ro2 1  0  9.9000E+01
* output
rso 1  6  1.0000E+00
ecl 18 0  1  6  2.0774E+01
gcl 0  8  20 0  1.0000E+00
rcl 20 0  1.0000E+03
d1  18 20 dm1
d2  20 18 dm1
*
d3a 131 70 dm3
d3b 13 131 dm3
gpl 0  8  70 7  1.0000E+00
vc  13 6  3.1575E+00
rpla 7  70 1.0000E+04
rplb 7  131 1.0000E+05
d4a 60 141 dm3
d4b 141 14  dm3
gnl 0  8  60 4  1.0000E+00
ve  6  14 3.1575E+00
rnla 60 4  1.0000E+04
rnlb 141 4  1.0000E+05
*
ip  7  4  1.3800E-03
dsub 4  7  dm2
* models
.model jm1 pjf (is=2.7500E-11 beta=1.0335E-03 vto=-1.000000E+00)
.model jm2 pjf (is=1.2500E-11 beta=1.0335E-03 vto=-9.995000E-01)
.model dm1  d   (is=1.0000E-15)
.model dm2  d   (is=8.0000E-16 bv=4.3200E+01)
.model dm3  d   (is=1.0000E-16)
.model dm4  d   (is=1.0000E-09)
.ends
*-----------------------------------------------------------------------------
* Linear Technology LF412A op amp model
* Written: 05-10-1990 18:37:21 Type: PFET input, internal comp.
* Typical specs:
* Vos=3.0E-04, Ib=1.5E-11, Ios=1.0E-11, GBP=5.7E+06Hz, Phase mar.= 45 deg,
* SR(low)=1.5E+01V/us, SR(high)=3.0E+01V/us, Av=110.0dB, CMRR=100.0dB,
* Vsat(+)=2.0V, Vsat(-)=2.0V, Isc=+/-25mA, Rout= 100ohms, Iq= 2mA.
* (input cm clamp *optional*)
*
* Connections:    + - V+V-O
.subckt LF412A/LT 3 2 7 4 6
* input
vcm2 40  4  2.0000E+00
rd1 40  80 9.3073E+02
rd2 40  90 9.3073E+02
j1  80 102 12 jm1
j2  90 103 12 jm2
cin 2  3  4.0000E-12
rg1 2  102 2.0000E+00
rg2 3  103 2.0000E+00
** cm clamp
* dcm1 107 103 dm4
* dcm2 105 107 dm4
* vcmc 105 4   4.0E+00
* ecmp 106 4   103 4  1
* rcmp 107 106 1E+04
* dcm3 109 102 dm4
* dcm4 105 109 dm4
* ecmn 108 4   102 4  1
* rcmn 109 108 1E+04
** end cm clamp
c1  80 90 1.5000E-11
iss 7  12 6.0000E-04
gosit 7  12 90  80  3.0000E-04
* intermediate
gcm 0  8  12 0  1.0744E-08
ga  8  0  80 90 1.0744E-03
r2  8  0  1.0000E+05
c2  1  8  3.0000E-11
gb  1  0  8  0  2.9730E+01
ro2 1  0  9.9000E+01
* output
rso 1  6  1.0000E+00
ecl 18 0  1  6  2.0925E+01
gcl 0  8  20 0  1.0000E+00
rcl 20 0  1.0000E+03
d1  18 20 dm1
d2  20 18 dm1
*
d3a 131 70 dm3
d3b 13 131 dm3
gpl 0  8  70 7  1.0000E+00
vc  13 6  3.1615E+00
rpla 7  70 1.0000E+04
rplb 7  131 1.0000E+05
d4a 60 141 dm3
d4b 141 14  dm3
gnl 0  8  60 4  1.0000E+00
ve  6  14 3.1615E+00
rnla 60 4  1.0000E+04
rnlb 141 4  1.0000E+05
*
ip  7  4  1.2000E-03
dsub 4  7  dm2
* models
.model jm1 pjf (is=2.0000E-11 beta=9.6199E-04 vto=-1.000000E+00)
.model jm2 pjf (is=1.0000E-11 beta=9.6199E-04 vto=-9.997000E-01)
.model dm1  d   (is=1.0000E-15)
.model dm2  d   (is=8.0000E-16 bv=5.2800E+01)
.model dm3  d   (is=1.0000E-16)
.model dm4  d   (is=1.0000E-09)
.ends
*-----------------------------------------------------------------------------
.subckt LH2108/LT 3 2 7 4 6 1 8
      x_LH2108/LT 3 2 7 4 6 1 8 LM108/LT
.ends
*-----------------------------------------------------------------------------
.subckt LH2108A/LT 3 2 7 4 6 1 8
      x_LH2108A/LT 3 2 7 4 6 1 8 LM108A/LT
.ends
*-----------------------------------------------------------------------------
* Linear Technology LM101A op amp model
* Written: 08-23-1989 15:55:44 Type: Bipolar npn input, external comp.
* Typical specs:
* Vos=7.0E-04, Ib=3.0E-08, Ios=1.5E-09, GBP=9.0E+05Hz, Phase mar.= 70 deg,
* SR(+)=5.0E-01V/us, SR(-)=4.8E-01V/us, Av= 104 dB, CMMR= 96 dB,
* Vsat(+)=1.00V, Vsat(-)=1.00V, Isc=+/-30.0mA, Iq= 1800uA
*
* Connections:    + - V+V-O CaCb
.subckt LM101A/LT 3 2 7 4 6 1 8 ; Use C=30 pF in main circuit (Ca to Cb).
* input
rc1 7  80 5.895E+03
rc2 7  90 5.895E+03
q1  80 2  10 qm1
q2  90 3  11 qm2
c1  80 90 5.460E-12
re1 10 12 2.438E+03
re2 11 12 2.438E+03
iee 12 4  1.506E-05
re  12 0  1.328E+07
ce  12 0  1.579E-12
* intermediate
gcm 0  8  12 0  2.689E-09
ga  8  0  80 90 1.696E-04
r2  8  0  1.000E+05
* external comp cap used for c2 (see note above).
gb  1  0  8  0  1.401E+02
* output
ro1 1  6  3.333E+01
ro2 1  0  6.667E+01
rc  17 0  4.758E-05
gc  0  17 6  0  2.102E+04
d1  1  17 dm1
d2  17 1  dm1
d3  6  13 dm2
d4  14 6  dm2
vc  7  13 1.808E+00
ve  14 4  1.808E+00
ip  7  4  1.785E-03
dsub 4  7  dm2
* models
.model qm1 npn (is=8.000E-16 bf=2.439E+02)
.model qm2 npn (is=8.220E-16 bf=2.564E+02)
.model dm1 d   (is=3.337E-15)
.model dm2 d   (is=8.000E-16)
.ends
*-----------------------------------------------------------------------------
* Linear Technology LM107 op amp model
* Written: 08-23-1989 15:53:34 Type: Bipolar npn input, internal comp.
* Typical specs:
* Vos=7.0E-04, Ib=3.0E-08, Ios=1.5E-09, GBP=9.0E+05Hz, Phase mar.= 70 deg,
* SR(+)=5.0E-01V/us, SR(-)=4.8E-01V/us, Av= 104 dB, CMMR= 96 dB,
* Vsat(+)=1.00V, Vsat(-)=1.00V, Isc=+/-30.0mA, Iq= 1800uA
*
* Connections:   + - V+V-O
.subckt LM107/LT 3 2 7 4 6
* input
rc1 7  80 5.895E+03
rc2 7  90 5.895E+03
q1  80 2  10 qm1
q2  90 3  11 qm2
c1  80 90 5.460E-12
re1 10 12 2.438E+03
re2 11 12 2.438E+03
iee 12 4  1.506E-05
re  12 0  1.328E+07
ce  12 0  1.579E-12
* intermediate
gcm 0  8  12 0  2.689E-09
ga  8  0  80 90 1.696E-04
r2  8  0  1.000E+05
c2  1  8  3.000E-11
gb  1  0  8  0  1.401E+02
* output
ro1 1  6  3.333E+01
ro2 1  0  6.667E+01
rc  17 0  4.758E-05
gc  0  17 6  0  2.102E+04
d1  1  17 dm1
d2  17 1  dm1
d3  6  13 dm2
d4  14 6  dm2
vc  7  13 1.808E+00
ve  14 4  1.808E+00
ip  7  4  1.785E-03
dsub 4  7  dm2
* models
.model qm1 npn (is=8.000E-16 bf=2.439E+02)
.model qm2 npn (is=8.220E-16 bf=2.564E+02)
.model dm1 d   (is=3.337E-15)
.model dm2 d   (is=8.000E-16)
.ends
*-----------------------------------------------------------------------------
* Linear Technology LM108 op amp model (with calls for LH2108)
* Written: 08-23-1989 15:42:36 Type: Bipolar npn input, external comp.
* Typical specs:
* Vos=7.0E-04, Ib=5.0E-10, Ios=5.0E-11, GBP=6.0E+05Hz, Phase mar.= 70 deg,
* SR(+)=2.0E-01V/us, SR(-)=1.9E-01V/us, Av= 110 dB, CMMR= 100 dB,
* Vsat(+)=1.00V, Vsat(-)=1.00V, Isc=+/- 6.0mA, Iq=  300uA
* (input differential mode clamp active)
*
* Connections:   + - V+V-O CaCb
.subckt LM108/LT 3 2 7 4 6 1 8 ; Use C=30 pF in main circuit (Ca to Cb).
* input
rc1 7  80 8.842E+03
rc2 7  90 8.842E+03
q1  80 2  10 qm1
q2  90 3  11 qm2
ddm1 2  3  dm2
ddm2 3  2  dm2
c1  80 90 5.460E-12
re1 10 12 2.246E+02
re2 11 12 2.246E+02
iee 12 4  6.001E-06
re  12 0  3.333E+07
ce  12 0  1.579E-12
* intermediate
gcm 0  8  12 0  1.131E-09
ga  8  0  80 90 1.131E-04
r2  8  0  1.000E+05
* external comp cap used for c2 (see note above).
gb  1  0  8  0  3.146E+01
* output
ro1 1  6  1.111E+02
ro2 1  0  8.889E+02
rc  17 0  3.533E-04
gc  0  17 6  0  2.830E+03
d1  1  17 dm1
d2  17 1  dm1
d3  6  13 dm2
d4  14 6  dm2
vc  7  13 1.766E+00
ve  14 4  1.766E+00
ip  7  4  2.940E-04
dsub 4  7  dm2
* models
.model qm1 npn (is=8.000E-16 bf=5.714E+03)
.model qm2 npn (is=8.220E-16 bf=6.316E+03)
.model dm1 d   (is=1.192E-10)
.model dm2 d   (is=8.000E-16)
.ends
*-----------------------------------------------------------------------------
* Linear Technology LM108A op amp model (with calls for LH2108A)
* Written: 08-23-1989 15:40:03 Type: Bipolar npn input, external comp.
* Typical specs:
* Vos=3.0E-04, Ib=5.0E-10, Ios=5.0E-11, GBP=6.0E+05Hz, Phase mar.= 70 deg,
* SR(+)=2.0E-01V/us, SR(-)=1.9E-01V/us, Av= 110 dB, CMMR= 110 dB,
* Vsat(+)=1.00V, Vsat(-)=1.00V, Isc=+/- 6.0mA, Iq=  300uA
* (input differential mode clamp active)
*
* Connections:    + - V+V-O CaCb
.subckt LM108A/LT 3 2 7 4 6 1 8 ; Use C=30 pF in main circuit (Ca to Cb).
* input
rc1 7  80 8.842E+03
rc2 7  90 8.842E+03
q1  80 2  10 qm1
q2  90 3  11 qm2
ddm1 2  3  dm2
ddm2 3  2  dm2
c1  80 90 5.460E-12
re1 10 12 2.246E+02
re2 11 12 2.246E+02
iee 12 4  6.001E-06
re  12 0  3.333E+07
ce  12 0  1.579E-12
* intermediate
gcm 0  8  12 0  3.576E-10
ga  8  0  80 90 1.131E-04
r2  8  0  1.000E+05
* external comp cap used for c2 (see note above).
gb  1  0  8  0  3.146E+01
* output
ro1 1  6  1.111E+02
ro2 1  0  8.889E+02
rc  17 0  3.533E-04
gc  0  17 6  0  2.830E+03
d1  1  17 dm1
d2  17 1  dm1
d3  6  13 dm2
d4  14 6  dm2
vc  7  13 1.766E+00
ve  14 4  1.766E+00
ip  7  4  2.940E-04
dsub 4  7  dm2
* models
.model qm1 npn (is=8.000E-16 bf=5.714E+03)
.model qm2 npn (is=8.093E-16 bf=6.316E+03)
.model dm1 d   (is=1.192E-10)
.model dm2 d   (is=8.000E-16)
.ends
*-----------------------------------------------------------------------------
* Linear Technology LM118 op amp model
* Written: 11-21-1989 Type: Bipolar npn input, internal comp.
* Typical specs:
*       Ref. LM118 data sheet, LTC 1990 databook p2-313
* Comments:
*       Uses extended phase compensation; input differential mode clamp.
*
* Connections:   + - V+V-O
.subckt LM118/LT 3 2 7 4 6
* input
rc1 7  80 7.074E+02
rc2 7  90 7.074E+02
q1  80 2  10 qm1
q2  90 3  11 qm1
*
c1   80 91 300e-12
rxc1 91 90 1e3
cxc1 91 90 15e-12
c2  1  8  5.000E-12
*
rb1  2   102 1.0000E+00
rb2  3   103 1.0000E+00
ddm1 102 104 dm2
vz1  104 103 5.5
ddm2 103 105 dm2
vz2  105 102 5.5
re1 10 12 6.209E+02
re2 11 12 6.209E+02
iee 12 4  6.000E-04
re  12 0  3.332E+05
ce  12 0  2.632E-13
*
gcm 0  8  12 0  1.414E-08
ga  8  0  80 90 1.414E-03
r2  8  0  1.000E+05
gb  1  0  8  0  5.318E+01
ro2 1  0  7.4000E+01
*
rs  1  6  1
ecl 18 0  1 6 3.172e+01
gcl 0  8  20 0  1
rcl 20 0  1e3
d1  18 20 dm1
d2  20 18 dm1
*
d3a  131 70  dm3
d3b  13  131 dm3
gpl  0   8   70  7  1
vc   13  6   3.6473
rpla 7   70  1e4
rplb 7   131 1e5
d4a  60  141 dm3
d4b  141 14  dm3
gnl  0   8   60  4  1
ve   6   14  3.6473
rnla 60  4   1e4
rnlb 141 4   1e5
*
ip  7  4  4.400E-03
dsub 4  7  dm2
* models
.model qm1 npn (is=8.0000E-16 bf=2.4390E+03)
.model qm2 npn (is=8.6435E-16 bf=2.5641E+03)
*
.model dm1 d   (is=1.000e-19)
.model dm2 d   (is=8.000E-16)
.model dm3 d   (is=1.000e-20)
.ends
*-----------------------------------------------------------------------------
* Linear Technology LT118A op amp model
* Written: 11-21-1989 Type: Bipolar npn input, internal comp.
* Typical specs:
*       Ref. LT118A data sheet, LTC 1990 databook p2-313
* Comments:
*       Uses extended phase compensation; input differential mode clamp.
*
* Connections:    + - V+V-O
.subckt LT118A/LT 3 2 7 4 6
* input
rc1 7  80 7.074E+02
rc2 7  90 7.074E+02
q1  80 2  10 qm1
q2  90 3  11 qm1
*
c1   80 91 300e-12
rxc1 91 90 1e3
cxc1 91 90 15e-12
c2  1  8  5.000E-12
*
rb1  2   102 1.0000E+00
rb2  3   103 1.0000E+00
ddm1 102 104 dm2
vz1  104 103 5.5
ddm2 103 105 dm2
vz2  105 102 5.5
re1 10 12 6.209E+02
re2 11 12 6.209E+02
iee 12 4  6.000E-04
re  12 0  3.332E+05
ce  12 0  2.632E-13
*
gcm 0  8  12 0  1.414E-08
ga  8  0  80 90 1.414E-03
r2  8  0  1.000E+05
gb  1  0  8  0  5.318E+01
ro2 1  0  7.4000E+01
*
rs  1  6  1
ecl 18 0  1 6 3.172e+01
gcl 0  8  20 0  1
rcl 20 0  1e3
d1  18 20 dm1
d2  20 18 dm1
*
d3a  131 70  dm3
d3b  13  131 dm3
gpl  0   8   70  7  1
vc   13  6   3.6473
rpla 7   70  1e4
rplb 7   131 1e5
d4a  60  141 dm3
d4b  141 14  dm3
gnl  0   8   60  4  1
ve   6   14  3.6473
rnla 60  4   1e4
rnlb 141 4   1e5
*
ip  7  4  4.400E-03
dsub 4  7  dm2
* models
.model qm1 npn (is=8.0000E-16 bf=2.4390E+03)
.model qm2 npn (is=8.1562E-16 bf=2.5641E+03)
*
.model dm1 d   (is=1.000e-19)
.model dm2 d   (is=8.000E-16)
.model dm3 d   (is=1.000e-20)
.ends
*-----------------------------------------------------------------------------
* Linear Technology LM308 op amp model
* Written: 08-23-1989 15:46:51 Type: Bipolar npn input, external comp.
* Typical specs:
* Vos=2.0E-03, Ib=1.5E-09, Ios=2.0E-10, GBP=6.0E+05Hz, Phase mar.= 70 deg,
* SR(+)=2.0E-01V/us, SR(-)=1.9E-01V/us, Av= 110 dB, CMMR= 100 dB,
* Vsat(+)=1.00V, Vsat(-)=1.00V, Isc=+/- 6.0mA, Iq=  300uA
* (input differential mode clamp active)
*
* Connections:   + - V+V-O CaCb
.subckt LM308/LT 3 2 7 4 6 1 8 ; Use C=30 pF in main circuit (Ca to Cb).
* input
rc1 7  80 8.842E+03
rc2 7  90 8.842E+03
q1  80 2  10 qm1
q2  90 3  11 qm2
ddm1 2  3  dm2
ddm2 3  2  dm2
c1  80 90 5.460E-12
re1 10 12 2.245E+02
re2 11 12 2.245E+02
iee 12 4  6.003E-06
re  12 0  3.332E+07
ce  12 0  1.579E-12
* intermediate
gcm 0  8  12 0  1.131E-09
ga  8  0  80 90 1.131E-04
r2  8  0  1.000E+05
* external comp cap used for c2 (see note above).
gb  1  0  8  0  3.146E+01
* output
ro1 1  6  1.111E+02
ro2 1  0  8.889E+02
rc  17 0  3.533E-04
gc  0  17 6  0  2.830E+03
d1  1  17 dm1
d2  17 1  dm1
d3  6  13 dm2
d4  14 6  dm2
vc  7  13 1.766E+00
ve  14 4  1.766E+00
ip  7  4  2.940E-04
dsub 4  7  dm2
* models
.model qm1 npn (is=8.000E-16 bf=1.875E+03)
.model qm2 npn (is=8.643E-16 bf=2.143E+03)
.model dm1 d   (is=1.192E-10)
.model dm2 d   (is=8.000E-16)
.ends
*-----------------------------------------------------------------------------
* Linear Technology LM308A op amp model