* TL032 OPERATIONAL AMPLIFIER "MACROMODEL" SUBCIRCUIT
* CREATED USING PARTS RELEASE 4.03 ON 07/19/90 AT 08:34
* REV (N/A)      SUPPLY VOLTAGE: +/-5V
* CONNECTIONS:   NON-INVERTING INPUT
*                | INVERTING INPUT
*                | | POSITIVE POWER SUPPLY
*                | | | NEGATIVE POWER SUPPLY
*                | | | | OUTPUT
*                | | | | |
.SUBCKT TL032/5V    1 2 3 4 5
*
  C1   11 12 3.072E-12
  C2    6  7 20.00E-12
  CSS  10 99 19.00E-12
  DC    5 53 DX
  DE   54  5 DX
  DLP  90 91 DX
  DLN  92 90 DX
  DP    4  3 DX
  EGND 99  0 POLY(2) (3,0) (4,0) 0 .5 .5
  FB 7 99 POLY(5) VB VC VE VLP VLN 0 6.475E5 -1E6 1E6 1E6 -1E6
  GA    6  0 11 12 70.37E-6
  GCM 0  6 10 99 6.664E-9
  ISS   3 10 DC 78.00E-6
  HLIM 90  0 VLIM 1K
  J1   11  2 10 JX
  J2   12  1 10 JX
  R2    6  9 100.0E3
  RD1   4 11 14.21E3
  RD2   4 12 14.21E3
  RO1   8  5 135
  RO2   7 99 135
  RP    3  4 52.08E3
  RSS  10 99 2.564E6
  VB    9  0 DC 0
  VC 3 53 DC 1.350
  VE   54  4 DC 1.450
  VLIM  7  8 DC 0
  VLP  91  0 DC 8
  VLN   0 92 DC 8
.MODEL DX D(IS=800.0E-18)
.MODEL JX PJF(IS=1.000E-12 BETA=127.0E-6 VTO=-.515)
.ENDS

* TL032 OPERATIONAL AMPLIFIER "MACROMODEL" SUBCIRCUIT
* CREATED USING PARTS RELEASE 4.01 ON 06/08/89 AT 12:57
* (REV N/A)      SUPPLY VOLTAGE: +/-15V
* CONNECTIONS:   NON-INVERTING INPUT
*                | INVERTING INPUT
*                | | POSITIVE POWER SUPPLY
*                | | | NEGATIVE POWER SUPPLY
*                | | | | OUTPUT
*                | | | | |
.SUBCKT TL032/15V    1 2 3 4 5
*
  C1   11 12 3.498E-12
  C2    6  7 15.00E-12
  CSS  10 99 11.38E-12
  DC    5 53 DX
  DE   54  5 DX
  DLP  90 91 DX
  DLN  92 90 DX
  DP    4  3 DX
  EGND 99  0 POLY(2) (3,0) (4,0) 0 .5 .5
  FB    7 99 POLY(5) VB VC VE VLP VLN 0 936.5E3 -900E3 900E3 900E3 -900E3
  GA 6  0 11 12 113.1E-6
  GCM   0  6 10 99 2.257E-9
  ISS   3 10 DC 76.50E-6
  HLIM 90  0 VLIM 1K
  J1   11  2 10 JX
  J2   12  1 10 JX
  R2    6  9 100.0E3
  RD1   4 11 8.841E3
  RD2   4 12 8.841E3
  RO1   8  5 135
  RO2   7 99 135
  RP    3  4 138.5E3
  RSS  10 99 2.614E6
  VB    9  0 DC 0
  VC    3 53 DC 1.700
  VE   54  4 DC 1.800
  VLIM  7  8 DC 0
  VLP  91  0 DC 8
  VLN   0 92 DC 8
.MODEL DX D(IS=800.0E-18)
.MODEL JX PJF(IS=1.000E-12 BETA=140E-6 VTO=-1)
.ENDS