*** Voltage regulators (positive)

.SUBCKT x_LM78XX Input Output Ground PARAMS:
+ Av_feedback=1665, R1_Value=1020
*
* SERIES 3-TERMINAL POSITIVE REGULATOR
*
* Note: This regulator is based on the LM78XX series of
* regulators (also the LM140 and LM340). The model
* will cause some current to flow to Node 0 which
* is not part of the actual voltage regulator circuit.
*
* Band-gap voltage source:
*
* The source is off when Vin<3V and fully on when Vin>3.7V.
* Line regulation and ripple rejection) are set with
* Rreg= 0.5 * dVin/dVbg. The temperature dependence of this
* circuit is a quadratic fit to the following points:
*
* T Vbg(T)/Vbg(nom)
* --- ---------------
* 0 .999
* 37.5 1
* 125 .990
*
* The temperature coefficient of Rbg is set to 2 * the band gap
* temperature coefficient. Tnom is assumed to be 27 deg. C and
* Vnom is 3.7V
*
Vbg 100 0 DC 7.4V
Sbg (100,101),(Input,Ground) Sbg1
Rbg 101 0 1 TC=1.612E-5,-2.255E-6
Ebg (102,0),(Input,Ground) 1
Rreg 102 101 7k
.MODEL Sbg1 VSWITCH (Ron=1 Roff=1MEG Von=3.7 Voff=3)
*
* Feedback stage
*
* Diodes D1,D2 limit the excursion of the amplifier
* outputs to being near the rails. Rfb, Cfb Set the
* corner frequency for roll-off of ripple rejection.

*
* The opamp gain is given by: Av = (Fores/Freg) * (Vout/Vbg)
* where Fores = output impedance corner frequency
* with Cl=0 (typical value about 1MHz)
* Freg = corner frequency in ripple rejection
* (typical value about 600 Hz)
* Vout = regulator output voltage (5,12,15V)
* Vbg = bandgap voltage (3.7V)
*
* Note: Av is constant for all output voltages, but the
* feedback factor changes. If Av=2250, then the
* Av*Feedback factor is as given below:
*
* Vout Av*Feedback factor
* ---- ------------------
* 5 1665
* 12 694
* 15 550
*
Rfb 9 8 1MEG
Cfb 8 Ground 265PF
Eopamp 105 0 VALUE={2250*v(101,0)+Av_feedback*v(Ground,8)}
Vgainf 200 0 {Av_feedback}
Rgainf 200 0 1
*Eopamp 105 0 POLY(3),(101,0),(Ground,8),(200,0) 0 2250 0 0 0 0 0 0 1
Ro 105 106 1k
D1 106 108 Dlim
D2 107 106 Dlim
.MODEL Dlim D (Vj=0.7)
Vl1 102 108 DC 1
Vl2 107 0 DC 1
*
* Quiescent current modelling
*
* Quiescent current is set by Gq, which draws a current
* proportional to the voltage drop across the regulator and
* R1 (temperature coefficient .1%/deg C). R1 must change
* with output voltage as follows: R1 = R1(5v) * Vout/5v.
*
Gq (Input,Ground),(Input,9) 2.0E-5
R1 9 Ground {R1_Value} TC=0.001
*
* Output Stage
*
* Rout is used to set both the low frequency output impedence
* and the load regulation.
*
Q1 Input 5 6 Npn1
Q2 Input 6 7 Npn1 10
.MODEL Npn1 NPN (Bf=50 Is=1E-14)
* Efb Input 4 VALUE={v(Input,Ground)+v(0,106)}
Efb Input 4 POLY(2),(Input,Ground),(0,106) 0 1 1
Rb 4 5 1k TC=0.003
Re 6 7 2k
Rsc 7 9 0.275 TC=1.136E-3,-7.806E-6
Rout 9 Output 0.008
*
* Current Limit
*
Rbcl 7 55 290
Qcl 5 55 9 Npn1
Rcldz 56 55 10k
Dz1 56 Input Dz
.MODEL Dz D (Is=0.05p Rs=3 Bv=7.11 Ibv=0.05u)
.ENDS
*$
*
*---------------------------------------------------------------LM7805C
.SUBCKT LM7805C Input Output Ground
x1 Input Output Ground x_LM78XX PARAMS:
+ Av_feedback=1665, R1_Value=1020
.ENDS
*$
*
*---------------------------------------------------------------uA7805C
.SUBCKT UA7805C Input Output Ground
x1 Input Output Ground x_LM78XX PARAMS:
+ Av_feedback=1665, R1_Value=1020
.ENDS
*$
*
* MANUFACTURERS PART NO.= UA7805 (TEXAS INTERNATIONAL)
* SUBTYPE: REGULATOR
* THIS FILE CONTAINS A PRE-RAD TEMP. DEPENDENT MODEL OF THE UA7805
* REGULATOR.
*
*------------------------------------------------------------------------------
*
*
* THIS MODEL CAN BE USED FROM -55 C TO 125 C WITH THE .TEMP STATEMENT. IT
* INCLUDES POWER-UP AND POWER-DOWN EFFECTS.
* IT MAY BE NECESSARY TO SET ITL1=300 ITL2=300 WITH THE .OPTIONS COMMAND
* FOR CONVERGENCE. THESE SETTINGS DETERMINE THE NUMBER OF ITERATIONS
* ALLOWED FOR THE CALCULATION OF THE DC AND BIAS PT VALUES WHEN THE
* STARTING POINT IS CONSIDERED "BLIND" OR AN "EDUCATED GUESS".
* OTHER SETTINGS MAY WORK, BUT HAVE NOT BEEN TESTED YET.
*
*
*
.SUBCKT UA7805/TEMP 1 2 3
* | | |
* IN | |
* OUT |
* GND
*

 

 

 

*** VOLTAGE REFERENCE AND BIAS CURRENT SECTION ***
DZ1 4 1 DZ1
.MODEL DZ1 D (
+ IS = 1E-14
+ RS = 0
+ N = 1
+ TT = 0
+ CJO = 0
+ VJ = 1
+ M = .5
+ EG = 1.11
+ XTI = 3
+ KF = 0
+ AF = 1
+ FC = .5
+ BV = 1.5
+ IBV = 1E-10
+ ISR = 0
+ NR = 2
+ IKF = 9.9999E+13
+ NBV = 0.01
+ IBVL = 0
+ NBVL = 1
+ TIKF = 0
+ TBV1 = -0.001481
+ TBV2 = -1.85167E-5
+ TRS1 = 0
+ TRS2 = 0
+ )
RQ 4 17 112090 TC=0.003483, -4.9343E-6
RR 17 18 4.7 TC=0.003449, -5.495E-6
DR 16 18 DR
.MODEL DR D (
+ IS = 1E-14
+ RS = 0
+ N = 1
+ TT = 0
+ CJO = 0
+ VJ = 1
+ M = .5
+ EG = 1.11
+ XTI = 3
+ KF = 0
+ AF = 1
+ FC = .5
+ BV = 1.2651
+ IBV = 1E-10
+ ISR = 0
+ NR = 2
+ IKF = 9.9999E+13
+ NBV = 0.01
+ IBVL = 0
+ NBVL = 1
+ TIKF = 0
+ TBV1 = 1.805303E-4
+ TBV2 = -2.461378E-6
+ TRS1 = 0
+ TRS2 = 0
+ )
RZ 16 18 1MEG
L1 16 3 IND1 0.796M
.MODEL IND1 IND(
+ L = 1
+ IL1 = 0
+ IL2 = 0
+ TC1 = 0.00236
+ TC2 = 1.24436E-5
+ )
*** ERROR AMPLIFIER SECTION ***
EP 22 3 17 15 300
RO 22 6 25
DC- 3 6 DCLAMP
DC+ 6 19 DCLAMP
.MODEL DCLAMP D(
+ IS = 1E-14
+ RS = 0
+ N = 1
+ TT = 0
+ CJO = 0
+ VJ = 1
+ M = .5
+ EG = 1.11
+ XTI = 3
+ KF = 0
+ AF = 1
+ FC = .5
+ BV = 9.9999E+13
+ IBV = 1E-10
+ ISR = 0
+ NR = 2
+ IKF = 9.9999E+13
+ NBV = 1
+ IBVL = 0
+ NBVL = 1
+ TIKF = 0
+ TBV1 = 0
+ TBV2 = 0
+ TRS1 = 0
+ TRS2 = 0
+ )
V+ 19 23 DC -1
E+ 23 3 1 3 1
RP 6 7 50
CPZ 7 3 0.5U
*** QUIESCENT CURRENT ***
GB 1 9 17 3 0.5002M
RQUIES 12 3 3396 TC=0.006886, 4.655264E-5
*** SHORT CIRCUIT AND FOLDBACK CURRENT ***
DBL 9 8 DBL
.MODEL DBL D(
+ IS = 1E-4
+ RS = 0
+ N = 1
+ TT = 0
+ CJO = 0
+ VJ = 1
+ M = .5
+ EG = 0
+ XTI = 0
+ KF = 0
+ AF = 1
+ FC = .5
+ BV = 9.9999E+13
+ IBV = 1E-10
+ ISR = 0
+ NR = 2
+ IKF = 9.9999E+13
+ NBV = 1
+ IBVL = 0
+ NBVL = 1
+ TIKF = 0
+ TBV1 = 0
+ TBV2 = 0
+ TRS1 = 0
+ TRS2 = 0
+ )
EB 8 3 7 3 2
RC 1 14 0.2
DC 14 13 DC
.MODEL DC D(
+ IS = 1E-14
+ RS = 0
+ N = 1.617
+ TT = 0
+ CJO = 0
+ VJ = 1
+ M = .5
+ EG = 1.11
+ XTI = 3
+ KF = 0
+ AF = 1
+ FC = .5
+ BV = 9.9999E+13
+ IBV = 1E-10
+ ISR = 0
+ NR = 2
+ IKF = 9.9999E+13
+ NBV = 1
+ IBVL = 0
+ NBVL = 1
+ TIKF = 0
+ TBV1 = 0
+ TBV2 = 0
+ TRS1 = 0
+ TRS2 = 0
+ )
RB 9 11 100
QP 13 11 5 QP
.MODEL QP NPN(
+ IS = 1E-12
+ BF = 70K
+ NF = 1
+ VAF = 150
+ IKF = 9.9999E+13
+ ISE = 0
+ NE = 1.5
+ BR = 1
+ NR = 1
+ VAR = 9.9999E+13
+ IKR = 9.9999E+13
+ ISC = 0
+ NC = 2
+ RB = 0
+ IRB = 9.9999E+13
+ RBM = 0
+ RE = 0
+ RC = 0
+ CJE = 0
+ VJE = .75
+ MJE = .33
+ TF = 0
+ XTF = 0
+ VTF = 9.9999E+13
+ ITF = 0
+ PTF = 0
+ CJC = 0
+ VJC = .75
+ MJC = .33
+ XCJC = 1
+ TR = 0
+ CJS = 0
+ VJS = .75
+ MJS = 0
+ XTB = 0
+ EG = 1.11
+ XTI = 3
+ KF = 0
+ AF = 1
+ FC = .5
+ NK = .5
+ ISS = 0
+ NS = 1
+ QCO = 0
+ RCO = 0
+ VO = 10
+ GAMMA = 1E-11
+ TRE1 = 0
+ TRE2 = 0
+ TRB1 = 0
+ TRB2 = 0
+ TRM1 = 0
+ TRM2 = 0
+ TRC1 = 0
+ TRC2 = 0
+ )
DCL 9 10 DCL
.MODEL DCL D(
+ IS = 1E-4
+ RS = 0
+ N = 2
+ TT = 0
+ CJO = 0
+ VJ = 1
+ M = .5
+ EG = 1.11
+ XTI = 3
+ KF = 0
+ AF = 1
+ FC = .5
+ BV = 9.9999E+13
+ IBV = 1E-10
+ ISR = 0
+ NR = 2
+ IKF = 9.9999E+13
+ NBV = 1
+ IBVL = 0
+ NBVL = 1
+ TIKF = 0
+ TBV1 = 0
+ TBV2 = 0
+ TRS1 = 0
+ TRS2 = 0
+ )
QCL 10 20 12 QLIMIT
.MODEL QLIMIT NPN(
+ IS = 1E-16
+ BF = 100
+ NF = 1
+ VAF = 9.9999E+13
+ IKF = 9.9999E+13
+ ISE = 0
+ NE = 1.5
+ BR = 1
+ NR = 1
+ VAR = 9.9999E+13
+ IKR = 9.9999E+13
+ ISC = 0
+ NC = 2
+ RB = 0
+ IRB = 9.9999E+13
+ RBM = 0
+ RE = 0
+ RC = 0
+ CJE = 0
+ VJE = .75
+ MJE = .33
+ TF = 0
+ XTF = 0
+ VTF = 9.9999E+13
+ ITF = 0
+ PTF = 0
+ CJC = 0
+ VJC = .75
+ MJC = .33
+ XCJC = 1
+ TR = 0
+ CJS = 0
+ VJS = .75
+ MJS = 0
+ XTB = 0
+ EG = 1.11
+ XTI = 3
+ KF = 0
+ AF = 1
+ FC = .5
+ NK = .5
+ ISS = 0
+ NS = 1
+ QCO = 0
+ RCO = 0
+ VO = 10
+ GAMMA = 1E-11
+ TRE1 = 0
+ TRE2 = 0
+ TRB1 = 0
+ TRB2 = 0
+ TRM1 = 0
+ TRM2 = 0
+ TRC1 = 0
+ TRC2 = 0
+ )
RSC 5 12 .5076
RBCL 20 5 1600
RFBCL 1 21 51.17K TC= 0.002528, -1.5164E-5
DZFB 20 21 DZFB
.MODEL DZFB D(
+ IS = 1E-14
+ RS = 0
+ N = 1
+ TT = 0
+ CJO = 0
+ VJ = 1
+ M = .5
+ EG = 1.11
+ XTI = 3
+ KF = 0
+ AF = 1
+ FC = .5
+ BV = 15.26
+ IBV = 1E-10
+ ISR = 0
+ NR = 2
+ IKF = 9.9999E+13
+ NBV = 0.01
+ IBVL = 0
+ NBVL = 1
+ TIKF = 0
+ TBV1 = -9.5474743E-4
+ TBV2 = 1.478994E-5
+ TRS1 = 0
+ TRS2 = 0
+ )
R24 15 3 600
R23 12 15 1850
*** OUTPUT RESISTANCE ***
ROUT 12 2 0.036 TC=0.002616, -1.50463E-5
DDIS 12 1 DMOD
.MODEL DMOD D(
+ IS = 1E-14
+ RS = 0
+ N = 0.7
+ TT = 0
+ CJO = 0
+ VJ = 1
+ M = .5
+ EG = 1.11
+ XTI = 3
+ KF = 0
+ AF = 1
+ FC = .5
+ BV = 9.9999E+13
+ IBV = 1E-10
+ ISR = 0
+ NR = 2
+ IKF = 9.9999E+13
+ NBV = 1
+ IBVL = 0
+ NBVL = 1
+ TIKF = 0
+ TBV1 = 0
+ TBV2 = 0
+ TRS1 = 0
+ TRS2 = 0
+ )
.ENDS UA7805/TEMP
*$
*
*
* GENERIC FUNCTIONAL EQUIVALENT = DT831031B
* TYPE: DIODE
* SUBTYPE: VOLTAGE_REF_TC

* THIS FILE CONTAINS 5 MODELS AT VARIOUS TEST CONDITIONS.
* PARAMETER MODELS EXTRACTED FROM MEASURED DATA

* RAD: PRERAD
* TEMP= 27

*** CAUTION: MODEL IS VALID FOR OPERATION IN THE REVERSE REGION ONLY!

.SUBCKT DT831031B/27C 99 2
D1 2 99 DLEAK
R1 2 99 1E12
V2 5 99 20.73
D2 2 5 DBLOCK
C1 2 99 5.5E-11
.MODEL DLEAK D (
+ IS = 3.219715E-12
+ RS = 0.0609964
+ N = 58.2632139
+ TT = 0
+ CJO = 0
+ VJ = 1
+ M = .5
+ EG = 1.11
+ XTI = 3
+ KF = 0
+ AF = 1
+ FC = .5
+ BV = 1E5
+ IBV = .001
+ )
.MODEL DBLOCK D (
+ IS = 3.066643E-11
+ RS = 1.6578749
+ N = 8.1826239
+ TT = 0
+ CJO = 0
+ VJ = 1
+ M = .5
+ EG = 1.11
+ XTI = 3
+ KF = 0
+ AF = 1
+ FC = .5
+ BV = 1E5
+ IBV = .001
+ )
.ENDS
*$
*
* RAD: PRERAD
* TEMP= -55

*** CAUTION: MODEL IS VALID FOR OPERATION IN THE REVERSE REGION ONLY!

.SUBCKT DT831031B/-55C 99 2
D1 2 99 DLEAK
R1 2 99 1E12
V2 5 99 20.93
D2 2 5 DBLOCK
C1 2 99 4.65E-11
.MODEL DLEAK D (
+ IS = 2.294595E-14
+ RS = 0.0609964
+ N = 62.9736183
+ TT = 0
+ CJO = 0
+ VJ = 1
+ M = .5
+ EG = 1.11
+ XTI = 3
+ KF = 0
+ AF = 1
+ FC = .5
+ BV = 1E5
+ IBV = .001
+ )
.MODEL DBLOCK D (
+ IS = 2.03286E-11
+ RS = 1.7841132
+ N = 9.602096
+ TT = 0
+ CJO = 0
+ VJ = 1
+ M = .5
+ EG = 1.11
+ XTI = 3
+ KF = 0
+ AF = 1
+ FC = .5
+ BV = 1E5
+ IBV = .001
+ )
.ENDS
*$
*
* RAD: PRERAD
* TEMP= 125

*** CAUTION: MODEL IS VALID FOR OPERATION IN THE REVERSE REGION ONLY!

.SUBCKT DT831031B/125C 99 2
D1 2 99 DLEAK
R1 2 99 1E12
V2 5 99 20.14
D2 2 5 DBLOCK
C1 2 99 6.8E-11
.MODEL DLEAK D (
+ IS = 1.569829E-12
+ RS = 0.0609964
+ N = 39.3712792
+ TT = 0
+ CJO = 0
+ VJ = 1
+ M = .5
+ EG = 1.11
+ XTI = 3
+ KF = 0
+ AF = 1
+ FC = .5
+ BV = 1E5
+ IBV = .001
+ )
.MODEL DBLOCK D (
+ IS = 1.612864E-11
+ RS = 2.4440014
+ N = 7.4242884
+ TT = 0
+ CJO = 0
+ VJ = 1
+ M = .5
+ EG = 1.11
+ XTI = 3
+ KF = 0
+ AF = 1
+ FC = .5
+ BV = 1E5
+ IBV = .001
+ )
.ENDS
*$
*
* TYPE: DIODE
* SUBTYPE: VOLTAGE_REF_TC

* THE FOLLOWING SECTION CONTAINS 2 PARAMETER SETS AT VARIOUS POST NEUTRON
* RADIATION LEVELS.
* PARAMETER SETS EXTRACTED FROM MEASURED DATA.

*** CAUTION: MODEL IS VALID FOR OPERATION IN THE REVERSE REGION ONLY!
*** CAUTION: USE ONLY AT TEMPERATURE SPECIFIED. ANY DEVIATION FROM THIS
*** TEMPERATURE WILL PRODUCE INCORRECT RESULTS.

* RAD: 2.2E13
* TYPE: NEUTRON
* TEMP: 27
*
.SUBCKT DT831031B/27C/RAD1 99 2
D1 2 99 DLEAK
R1 2 99 1E12
V2 5 99 20.71
D2 2 5 DBLOCK
C1 2 99 6E-11
.MODEL DLEAK D (
+ IS = 3.258506E-10
+ RS = 15.2165394
+ N = 80.8147666
+ TT = 0
+ CJO = 0
+ VJ = 1
+ M = .5
+ EG = 1.11
+ XTI = 3
+ KF = 0
+ AF = 1
+ FC = .5
+ BV = 1E5
+ IBV = .001
+ )
.MODEL DBLOCK D (
+ IS = 3.80381E-11
+ RS = 1.438611
+ N = 8.32254
+ TT = 0
+ CJO = 0
+ VJ = 1
+ M = .5
+ EG = 1.11
+ XTI = 3
+ KF = 0
+ AF = 1
+ FC = .5
+ BV = 1E5
+ IBV = .001
+ )
.ENDS
*$
*
* RAD: 2.73E14
* TYPE: NEUTRON
* TEMP: 27
*
.SUBCKT DT831031B/27C/RAD2 99 2
D1 2 99 DLEAK
R1 2 99 1E12
V2 5 99 20.40
D2 2 5 DBLOCK
C1 2 99 4.7E-11
.MODEL DLEAK D (
+ IS = 1.772633E-10
+ RS = 0.0609964
+ N = 68.8487735
+ TT = 0
+ CJO = 0
+ VJ = 1
+ M = .5
+ EG = 1.11
+ XTI = 3
+ KF = 0
+ AF = 1
+ FC = .5
+ BV = 1E5
+ IBV = .001
+ )
.MODEL DBLOCK D (
+ IS = 8.377173E-12
+ RS = 2.2593796
+ N = 8.2245024
+ TT = 0
+ CJO = 0
+ VJ = 1
+ M = .5
+ EG = 1.11
+ XTI = 3
+ KF = 0
+ AF = 1
+ FC = .5
+ BV = 1E5
+ IBV = .001
+ )
.ENDS
*$
* MANUFACTURERS PART NO. = LM129AH/883B (NATIONAL SEMICONDUCTOR)
* TYPE: IC_LINEAR
* SUBTYPE: REFERENCE
* THIS FILE CONTAINS 1 PRERAD TEMPERATURE DEPENDENT MACROMODEL OF THE LM129AH
* VOLTAGE REFERENCE
* CREATION DATE : 9-24-92
*
* PLEASE NOTE THE FOLLOWING:
*
* THIS MODEL CAN BE USED FROM -55 C TO 125 C WITH THE .TEMP STATEMENT.
* IT NEEDS TO BE RUN WITH VERSION 4.03 OR HIGHER OF PSPICE DUE TO THE
* TEMPERATURE COEFFICIENTS IN THE MODEL FOR THE INDUCTORS AND THE DIODE
* BREAKDOWN VOLTAGE. IT IS NECESSARY TO SET ITL1=300 ITL2=300 WITH THE
* .OPTIONS COMMAND FOR 100% CONVERGENCE. THESE SETTINGS DETERMINE THE
* NUMBER OF ITERATIONS ALLOWED FOR THE CALCULATION OF THE DC AND BIAS PT
* VALUES WHEN THE STARTING POINT IS CONSIDERED "BLIND" OR AN "EDUCATED GUESS".
* OTHER SETTINGS MAY WORK, BUT HAVE NOT BEEN TESTED YET.
*
*------------------------------------------------------------------------------
*
*
.SUBCKT LM129 1 2
********** | |
********* + (CATHODE)
*********** - (ANODE)
*
DR 3 1 DMOD
.MODEL DMOD D(
+ IS = 1E-14
+ RS = 0
+ N = 1
+ TT = 0
+ CJO = 0
+ VJ = 1
+ M = .5
+ EG = 1.11
+ XTI = 3
+ KF = 0
+ AF = 1
+ FC = .5
+ BV = 6.847
+ IBV = .001
+ )
CR 3 1 CR 300PF
.MODEL CR CAP(
*PSPICE (MicroSim) Specific Parameters Follow
+ C = 1
+ VC1 = 0
+ VC2 = 0
+ TC1 = 0.44
+ TC2 = 0.0055
+ )
RDR 3 4 0.6211 TC=2.7447E-4, 1.2663E-5
LDR 4 2 LDR 0.0247MH
.MODEL LDR IND(
*PSPICE (MicroSim) Specific Parameters Follow
+ L = 1
+ IL1 = 0
+ IL2 = 0
+ TC1 = 8.5774E-3
+ TC2 = 2.4348E-5
+ )
RLDR 4 2 50
.ENDS LM129
*$
*
* RAD: PRERAD
*
* TEMP= -55
*
*** NOTE: TRR MEASUREMENT WAS MADE @ 10MA/10MA/2.5MA
*
*** CAUTION: THE MEASURED TRR AND THE PSPICE CKT. SIMULATED TRR ARE DIFFERENT
* THIS COULD POTENTIALLY LEAD TO ERRORS IN CKT. SIMULATIONS IF USED
* AS A RECTIFIER OR SWITCHING DIODE
*
* MEASURED TRR = 627.0NS, SIMULATED TRR = 493.0NS.
*
.SUBCKT LM129/-55C 99 2
D1 2 99 DLEAK1
R1 2 99 1E12
R2 6 99 0.81
M1 2 2 6 8 MOS1
R3 6 8 1E12
V2 10 99 5.45
D2 2 10 DLEAK2
D3 99 2 DFOR
.MODEL DLEAK1 D (
+ IS = 2.76E-16
+ RS = 0.6745712
+ N = 14.579
+ TT = 0
+ CJO = 0
+ VJ = 1
+ M = .5
+ EG = 1.11
+ XTI = 3
+ KF = 0
+ AF = 1
+ FC = .5
+ BV = 1E5
+ IBV = .001
+ )
.MODEL MOS1 NMOS (
+ LEVEL = 1
+ VTO = 6.802
+ KP = 1E7
+ GAMMA = 0
+ PHI = .6
+ LAMBDA = 0
+ RD = 0
+ RS = 0
+ CBD = 0
+ CBS = 0
+ IS = 1E-14
+ PB = .8
+ CGSO = 0
+ CGDO = 0
+ CGBO = 0
+ RSH = 0
+ CJ = 0
+ MJ = .5
+ CJSW = 0
+ MJSW = .33
+ JS = 1E-08
+ TOX = .0000001
+ NSS = 0
+ NFS = 0
+ TPG = 1
+ XJ = 0
+ LD = 0
+ UO = 600
+ UCRIT = 10000
+ UEXP = 0
+ UTRA = 0
+ VMAX = 0
+ NEFF = 1
+ XQC = 1
+ KF = 0
+ AF = 1
+ FC = .5
+ DELTA = 0
+ THETA = 0
+ ETA = 0
+ KAPPA = .2
+ )
.MODEL DLEAK2 D (
+ IS = 5E-13
+ RS = 2E3
+ N = 1.1
+ TT = 0
+ CJO = 0
+ VJ = 1
+ M = .5
+ EG = 1.11
+ XTI = 3
+ KF = 0
+ AF = 1
+ FC = .5
+ BV = 1E5
+ IBV = .001
+ )
.MODEL DFOR D (
+ IS = 1.237167E-10
+ RS = 21.0306341
+ N = 1.5903301
+ TT = 6.80E-7
+ CJO = 2.216063E-11
+ VJ = 0.7379787
+ M = 0.2379013
+ EG = 1.11
+ XTI = 3
+ KF = 0
+ AF = 1
+ FC = 0.5
+ BV = 1E5
+ IBV = .001
+ )
.ENDS LM129/-55C
*
*$
* RAD: PRERAD
*
* TEMP= 125
*
*** NOTE: TRR MEASUREMENT WAS MADE @ 10MA/10MA/2.5MA
*
*** CAUTION: THE MEASURED TRR AND THE PSPICE CKT. SIMULATED TRR ARE DIFFERENT
* THIS COULD POTENTIALLY LEAD TO ERRORS IN CKT. SIMULATIONS IF USED
* AS A RECTIFIER OR SWITCHING DIODE
*
* MEASURED TRR = 2.117US, SIMULATED TRR = 905.8NS.
*
.SUBCKT LM129/125C 99 2
D1 2 99 DLEAK1
R1 2 99 5E8
R2 6 99 0.58
M1 2 2 6 8 MOS1
R3 6 8 1E15
V2 10 99 6
D2 2 10 DLEAK2
D3 99 2 DFOR
.MODEL DLEAK1 D (
+ IS = 3E-14
+ RS = 0.6746
+ N = 11
+ TT = 0
+ CJO = 0
+ VJ = 1
+ M = .5
+ EG = 1.11
+ XTI = 3
+ KF = 0
+ AF = 1
+ FC = .5
+ BV = 1E5
+ IBV = .001
+ )
.MODEL MOS1 NMOS (
+ LEVEL = 1
+ VTO = 6.984
+ KP = 1E7
+ GAMMA = 0
+ PHI = .6
+ LAMBDA = 0
+ RD = 0
+ RS = 0
+ CBD = 0
+ CBS = 0
+ IS = 1E-18
+ PB = .8
+ CGSO = 0
+ CGDO = 0
+ CGBO = 0
+ RSH = 0
+ CJ = 0
+ MJ = .5
+ CJSW = 0
+ MJSW = .33
+ JS = 1E-08
+ TOX = .0000001
+ NSS = 0
+ NFS = 0
+ TPG = 1
+ XJ = 0
+ LD = 0
+ UO = 600
+ UCRIT = 10000
+ UEXP = 0
+ UTRA = 0
+ VMAX = 0
+ NEFF = 1
+ XQC = 1
+ KF = 0
+ AF = 1
+ FC = .5
+ DELTA = 0
+ THETA = 0
+ ETA = 0
+ KAPPA = .2
+ )
.MODEL DLEAK2 D (
+ IS = 1E-12
+ RS = 2.3E3
+ N = 1.64
+ TT = 0
+ CJO = 0
+ VJ = 1
+ M = .5
+ EG = 1.11
+ XTI = 3
+ KF = 0
+ AF = 1
+ FC = .5
+ BV = 1E5
+ IBV = .001
+ )
.MODEL DFOR D (
+ IS = 1.5E-13
+ RS = 18
+ N = 1.05
+ TT = 1.2E-6
+ CJO = 2.88E-11
+ VJ = 0.35
+ M = 0.297
+ EG = 1.11
+ XTI = 3
+ KF = 0
+ AF = 1
+ FC = 0.860
+ BV = 1E5
+ IBV = .001
+ )
.ENDS LM129/125C
*$
* MANUFACTURERS PART NO. = LM129AH/883B (NATIONAL SEMICONDUCTOR)
* TYPE: IC_LINEAR
* SUBTYPE: REFERENCE
* THIS FILE CONTAINS 3 PRERAD SPICE2G.6 MACROMODELS AT 27 C, -55 C AND 125 C.
* TEMPERATURE PARAMETER MODELS EXTRACTED FROM MEASURED DATA.
* CREATION DATE : 07-05-90
*
*
**************************************************************************
* THE FOLLOWING MACROMODELS ARE SPICE2G.6 COMPATIBLE AND ARE FOR USE ONLY
* AT THE TEMPERATURE INDICATED
*
* RAD: PRERAD
*
* TEMP= 27
*
*** NOTE: TRR MEASUREMENT WAS MADE @ 10MA/10MA/2.5MA
*
*** CAUTION: THE MEASURED TRR AND THE PSPICE CKT. SIMULATED TRR ARE DIFFERENT
* THIS COULD POTENTIALLY LEAD TO ERRORS IN CKT. SIMULATIONS IF USED
* AS A RECTIFIER OR SWITCHING DIODE
*
* MEASURED TRR = 1.305US, SIMULATED TRR = 544.4NS.
*
.SUBCKT LM129/27C 99 2
D1 2 99 DLEAK1
R1 2 99 9.99E11
R2 6 99 0.6
M1 2 2 6 8 MOS1
R3 6 8 1E12
V2 10 99 5.8
D2 2 10 DLEAK2
D3 99 2 DFOR
.MODEL DLEAK1 D (
+ IS = 1.66E-15
+ RS = 15.7046607
+ N = 12.12
+ TT = 0
+ CJO = 0
+ VJ = 1
+ M = .5
+ EG = 1.11
+ XTI = 3
+ KF = 0
+ AF = 1
+ FC = .5
+ BV = 1E5
+ IBV = .001
+ )
.MODEL MOS1 NMOS (
+ LEVEL = 1
+ VTO = 6.885
+ KP = 1E7
+ GAMMA = 0
+ PHI = .6
+ LAMBDA = 0
+ RD = 0
+ RS = 0
+ CBD = 0
+ CBS = 0
+ IS = 1E-14
+ PB = .8
+ CGSO = 0
+ CGDO = 0
+ CGBO = 0
+ RSH = 0
+ CJ = 0
+ MJ = .5
+ CJSW = 0
+ MJSW = .33
+ JS = 1E-08
+ TOX = .0000001
+ NSS = 0
+ NFS = 0
+ TPG = 1
+ XJ = 0
+ LD = 0
+ UO = 600
+ UCRIT = 10000
+ UEXP = 0
+ UTRA = 0
+ VMAX = 0
+ NEFF = 1
+ XQC = 1
+ KF = 0
+ AF = 1
+ FC = .5
+ DELTA = 0
+ THETA = 0
+ ETA = 0
+ KAPPA = .2
+ )
.MODEL DLEAK2 D (
+ IS = 1.2E-16
+ RS = 2.2E3
+ N = 0.75
+ TT = 0
+ CJO = 0
+ VJ = 1
+ M = .5
+ EG = 1.11
+ XTI = 3
+ KF = 0
+ AF = 1
+ FC = .5
+ BV = 1E5
+ IBV = .001
+ )
.MODEL DFOR D (
+ IS = 4.16979E-10
+ RS = 8.541917
+ N = 1.6705528
+ TT = 7.4E-7
+ CJO = 2.724589E-11
+ VJ = 0.6060786
+ M = 0.2493594
+ EG = 1.11
+ XTI = 3
+ KF = 0
+ AF = 1
+ FC = 0.5
+ BV = 1E5
+ IBV = .001
+ )
.ENDS LM129/27C
*
*$
* MANUFACTURERS PART NO. = LM185BYH/883 (NATIONAL SEMICONDUCTOR)
* TYPE: IC_LINEAR
* SUBTYPE: REFERENCE
* THIS FILE CONTAINS 3 PRE-RAD SPICE2G.6 COMPATIBLE MODELS AT VARIOUS TEMPS
* OF THE LM185 TWO TERMINAL 1.2V REF.
* PARAMETER MODELS EXTRACTED FROM MEASURED DATA
* CREATION DATE : 07-02-90
*
*****CAUTION: THESE MODELS ARE ONLY GOOD FOR THE TEMPERATURE THEY WERE
* DEVELOPED AT.
*
* RAD: PRERAD
* TEMP= 27
*
*** NOTE: TRR MEASUREMENT WAS MADE @ 10MA/10MA/2.5MA
*
*** CAUTION: THE MEASURED TRR AND THE PSPICE CKT. SIMULATED TRR ARE DIFFERENT
* THIS COULD POTENTIALLY LEAD TO ERRORS IN CKT. SIMULATIONS IF USED
* AS A RECTIFIER OR IN SWITCHING APPLICATIONS.
*
* MEASURED TRR = 1.03US, SIMULATED TRR = 720.4NS.
*
*
.SUBCKT LM185/27C 99 2
D1 2 99 DLEAK
R1 2 99 1E12
R2 6 99 0.12
M1 2 2 6 8 MOS1
R3 6 8 1E12
D2 99 2 DFOR
.MODEL DLEAK D (
+ IS = 2E-6
+ RS = 34.8744396
+ N = 53
+ TT = 0
+ CJO = 0
+ VJ = 1
+ M = .5
+ EG = 1.11
+ XTI = 3
+ KF = 0
+ AF = 1
+ FC = .5
+ BV = 1E5
+ IBV = .001
+ )
.MODEL MOS1 NMOS (
+ LEVEL = 1
+ VTO = 2.512
+ KP = 1E7
+ GAMMA = 0
+ PHI = .6
+ LAMBDA = 0
+ RD = 0
+ RS = 0
+ CBD = 0
+ CBS = 0
+ IS = 1E-14
+ PB = .8
+ CGSO = 0
+ CGDO = 0
+ CGBO = 0
+ RSH = 0
+ CJ = 0
+ MJ = .5
+ CJSW = 0
+ MJSW = .33
+ JS = 1E-08
+ TOX = .0000001
+ NSS = 0
+ NFS = 0
+ TPG = 1
+ XJ = 0
+ LD = 0
+ UO = 600
+ UCRIT = 10000
+ UEXP = 0
+ UTRA = 0
+ VMAX = 0
+ NEFF = 1
+ XQC = 1
+ KF = 0
+ AF = 1
+ FC = .5
+ DELTA = 0
+ THETA = 0
+ ETA = 0
+ KAPPA = .2
+ )
.MODEL DFOR D (
+ IS = 5.173495E-9
+ RS = 13.7420803
+ N = 2.0242147
+ TT = 9.74E-7
+ CJO = 7.094324E-11
+ VJ = 0.6122206
+ M = 0.2691849
+ EG = 1.11
+ XTI = 3
+ KF = 0
+ AF = 1
+ FC = 0.5
+ BV = 1E5
+ IBV = .001
+ )
.ENDS LM185/27C
*
*$
* MANUFACTURERS PART NO. = LM185BYH/883 (NATIONAL SEMICONDUCTOR)
* TYPE: IC_LINEAR
* SUBTYPE: REFERENCE
* THIS FILE CONTAINS A PRE-RAD TEMPERATURE DEPENDENT SPICE2G.6 COMPATIBLE
* MODEL OF THE LM185BYH ADJUSTABLE 1.2-5.3V REF
* CREATION DATE : 11-28-90
*
*
* LM185 ADJUSTABLE VOLTAGE REFERENCE "MACROMODEL" SUBCIRCUIT
* THIS IS A TRANSISTOR LEVEL MODEL WHICH USES DEFAULT TRANSISTOR VALUES
* (EBER'S MOLL) AND FOLLOWS THE SCHEMATIC OF THE NATIONAL DATA SHEET. Q10
* (ONE OF THE NPN TRANSISTORS IN THE BANDGAP REFERENCE SECTION) HAS A SCALING
* FACTOR OF 10. THIS MODEL CAN BE USED WITH A .TEMP CARD. IT ACCURATELY
* SIMULATES CHANGE IN VREF WITH CHANGE IN CURRENT, ZOUT, AND IFEEDBACK.
*
***** CAUTION: THE MODEL EXCEEDS THE PRODUCT SPEC LIMIT FOR VREF AT 25 C BY
* 2 MV AND AT 125 C BY 27 MV FOR IR = 8 UA AND IR = 100 UA.
*
* SINCE THIS IS A TRANSISTOR LEVEL MODEL(WITH 13 TRANSISTORS), CIRCUIT
* SIMULATION TIME IS INCREASED.
*
* CONNECTIONS: PLUS
* | ADJUST
* | | MINUS
* | | |
.SUBCKT LM185 1 5 6
*
R6 1 2 200E3
R7 2 3 50E3
R8 3 4 300E3
Q14 6 5 4 PNPNOM
Q13 7 7 1 PNPNOM
Q10 7 3 8 NPNNOM 10
Q9 8 12 6 NPNNOM
Q12 9 7 1 PNPNOM
Q11 9 2 8 NPNNOM
R5 1 12 600E3
Q8 12 12 6 NPNNOM
Q7 13 9 1 PNPNOM
Q6 13 12 6 NPNNOM
R2 1 14 7.5E3
Q4 15 15 14 PNPNOM
Q5 15 13 16 NPNNOM
R3 16 6 500
Q3 17 15 1 PNPNOM
R1 17 6 100E3
Q1 1 17 6 NPNNOM
C1 17 15 20E-12
C2 13 9 20E-12
D1 6 1 DZENER
.MODEL NPNNOM NPN(
+ IS = 1E-16
+ BF = 100
+ NF = 1
+ VAF = 9.9999E+13
+ IKF = 9.9999E+13
+ ISE = 0
+ NE = 1.5
+ BR = 1
+ NR = 1
+ VAR = 9.9999E+13
+ IKR = 9.9999E+13
+ ISC = 0
+ NC = 2
+ RB = 0
+ IRB = 9.9999E+13
+ RBM = 0
+ RE = 0
+ RC = 0
+ CJE = 0
+ VJE = .75
+ MJE = .33
+ TF = 0
+ XTF = 0
+ VTF = 9.9999E+13
+ ITF = 0
+ PTF = 0
+ CJC = 0
+ VJC = .75
+ MJC = .33
+ XCJC = 1
+ TR = 0
+ CJS = 0
+ VJS = .75
+ MJS = 0
+ XTB = 0
+ EG = 1.11
+ XTI = 3
+ KF = 0
+ AF = 1
+ FC = .5
+ )
.MODEL PNPNOM PNP(
+ IS = 1E-16
+ BF = 100
+ NF = 1
+ VAF = 9.9999E+13
+ IKF = 9.9999E+13
+ ISE = 0
+ NE = 1.5
+ BR = 1
+ NR = 1
+ VAR = 9.9999E+13
+ IKR = 9.9999E+13
+ ISC = 0
+ NC = 2
+ RB = 0
+ IRB = 9.9999E+13
+ RBM = 0
+ RE = 0
+ RC = 0
+ CJE = 0
+ VJE = .75
+ MJE = .33
+ TF = 0
+ XTF = 0
+ VTF = 9.9999E+13
+ ITF = 0
+ PTF = 0
+ CJC = 0
+ VJC = .75
+ MJC = .33
+ XCJC = 1
+ TR = 0
+ CJS = 0
+ VJS = .75
+ MJS = 0
+ XTB = 0
+ EG = 1.11
+ XTI = 3
+ KF = 0
+ AF = 1
+ FC = .5
+ )
.MODEL DZENER D(
+ IS = 1E-14
+ RS = 0
+ N = 1
+ TT = 0
+ CJO = 0
+ VJ = 1
+ M = .5
+ EG = 1.11
+ XTI = 3
+ KF = 0
+ AF = 1
+ FC = .5
+ BV = 6.3
+ IBV = .001
+ )
.ENDS LM185
*$
*
* RAD: PRERAD
* TEMP= -55
*
* NOTE: TRR MEASUREMENT WAS MADE @ 10MA/10MA/2.5MA
*
*** CAUTION: THE MEASURED TRR AND THE PSPICE CKT. SIMULATED TRR ARE DIFFERENT
* THIS COULD POTENTIALLY LEAD TO ERRORS IN CKT. SIMULATIONS IF USED
* AS A RECTIFIER OR IN SWITCHING APPLICATIONS.
*
* MEASURED TRR = 687.5NS, SIMULATED TRR = 443.1NS.
*
*
.SUBCKT LM185/-55C 99 2
D1 2 99 DLEAK
R1 2 99 1E12
R2 6 99 0.085
M1 2 2 6 8 MOS1
R3 6 8 1E12
D2 99 2 DFOR
.MODEL DLEAK D (
+ IS = 4.5E-6
+ RS = 0.1117427
+ N = 105
+ TT = 0
+ CJO = 0
+ VJ = 1
+ M = .5
+ EG = 1.11
+ XTI = 3
+ KF = 0
+ AF = 1
+ FC = .5
+ BV = 1E5
+ IBV = .001
+ )
.MODEL MOS1 NMOS (
+ LEVEL = 1
+ VTO = 2.424
+ KP = 1E7
+ GAMMA = 0
+ PHI = .6
+ LAMBDA = 0
+ RD = 0
+ RS = 0
+ CBD = 0
+ CBS = 0
+ IS = 1E-14
+ PB = .8
+ CGSO = 0
+ CGDO = 0
+ CGBO = 0
+ RSH = 0
+ CJ = 0
+ MJ = .5
+ CJSW = 0
+ MJSW = .33
+ JS = 1E-08
+ TOX = .0000001
+ NSS = 0
+ NFS = 0
+ TPG = 1
+ XJ = 0
+ LD = 0
+ UO = 600
+ UCRIT = 10000
+ UEXP = 0
+ UTRA = 0
+ VMAX = 0
+ NEFF = 1
+ XQC = 1
+ KF = 0
+ AF = 1
+ FC = .5
+ DELTA = 0
+ THETA = 0
+ ETA = 0
+ KAPPA = .2
+ )
.MODEL DFOR D (
+ IS = 2.923266E-10
+ RS = 18.800808
+ N = 1.6458985
+ TT = 6.0E-7
+ CJO = 6.732155E-11
+ VJ = 0.6208282
+ M = 0.2203896
+ EG = 1.11
+ XTI = 3
+ KF = 0
+ AF = 1
+ FC = 0.5
+ BV = 1E5
+ IBV = .001
+ )
.ENDS LM185/-55C
*
*$
*
* RAD: PRERAD
* TEMP= 125
*
*** NOTE: TRR MEASUREMENT WAS MADE @ 10MA/10MA/2.5MA
*
*** CAUTION: THE MEASURED TRR AND THE PSPICE CKT. SIMULATED TRR ARE DIFFERENT
* THIS COULD POTENTIALLY LEAD TO ERRORS IN CKT. SIMULATIONS IF USED
* AS A RECTIFIER OR IN SWITCHING APPLICATIONS.
*
* MEASURED TRR = 1.877US, SIMULATED TRR = 1.233US.
*
*
.SUBCKT LM185/125C 99 2
D1 2 99 DLEAK
R1 2 99 1E12
R2 6 99 0.15
M1 2 2 6 8 MOS1
R3 6 8 1E12
D2 99 2 DFOR
.MODEL DLEAK D (
+ IS = 1E-6
+ RS = 15.831318
+ N = 45
+ TT = 0
+ CJO = 0
+ VJ = 1
+ M = .5
+ EG = 1.11
+ XTI = 3
+ KF = 0
+ AF = 1
+ FC = .5
+ BV = 1E5
+ IBV = .001
+ )
.MODEL MOS1 NMOS (
+ LEVEL = 1
+ VTO = 2.598
+ KP = 1E4
+ GAMMA = 0
+ PHI = .6
+ LAMBDA = 0
+ RD = 0
+ RS = 0
+ CBD = 0
+ CBS = 0
+ IS = 1E-14
+ PB = .8
+ CGSO = 0
+ CGDO = 0
+ CGBO = 0
+ RSH = 0
+ CJ = 0
+ MJ = .5
+ CJSW = 0
+ MJSW = .33
+ JS = 1E-08
+ TOX = .0000001
+ NSS = 0
+ NFS = 0
+ TPG = 1
+ XJ = 0
+ LD = 0
+ UO = 600
+ UCRIT = 10000
+ UEXP = 0
+ UTRA = 0
+ VMAX = 0
+ NEFF = 1
+ XQC = 1
+ KF = 0
+ AF = 1
+ FC = .5
+ DELTA = 0
+ THETA = 0
+ ETA = 0
+ KAPPA = .2
+ )
.MODEL DFOR D (
+ IS = 1.024781E-8
+ RS = 10.4280679
+ N = 2.1779911
+ TT = 1.6E-6
+ CJO = 7.791736E-11
+ VJ = 0.4
+ M = 0.2944435
+ EG = 1.11
+ XTI = 3
+ KF = 0
+ AF = 1
+ FC = 0.5
+ BV = 1E5
+ IBV = .001
+ )
.ENDS LM185/125C
*$
* MANUFACTURERS PART NO. = LM185BYH/883 (NATIONAL SEMICONDUCTOR)
* TYPE: IC_LINEAR
* SUBTYPE: REFERENCE
* THIS FILE CONTAINS ONE RADIATION MODEL OF THE 2 TERMINAL 1.2V REF.
* PARAMETER MODEL EXTRACTED FROM MEASURED DATA
* CREATION DATE : 07-23-90
*
* RAD: 1.13E12
* TYPE: NEUTRON
*
* TEMP= 27
*
*** NOTE: TRR MEASUREMENT WAS MADE @ 10MA/10MA/2.5MA
*
*** CAUTION: THE MEASURED TRR AND THE PSPICE CKT. SIMULATED TRR ARE DIFFERENT
* THIS COULD POTENTIALLY LEAD TO ERRORS IN CKT. SIMULATIONS IF USED
* AS A RECTIFIER OR IN SWITCHING APPLICATIONS.
*
*
* MEASURED TRR = 451.250NS, SIMULATED TRR = 360.4NS.
*
*
.SUBCKT LM185/27C/RAD 99 2
D1 2 99 DLEAK
R1 2 99 1.001E12
R2 6 99 0.33
M1 2 2 6 8 MOS1
R3 6 8 1E12
D2 99 2 DFOR
.MODEL DLEAK D (
+ IS = 3E-6
+ RS = 40
+ N = 65
+ TT = 0
+ CJO = 0
+ VJ = 1
+ M = .5
+ EG = 1.11
+ XTI = 3
+ KF = 0
+ AF = 1
+ FC = .5
+ BV = 9.9999E+13
+ IBV = .001
+ )
.MODEL MOS1 NMOS (
+ LEVEL = 1
+ VTO = 2.558
+ KP = 5E6
+ GAMMA = 0
+ PHI = .6
+ LAMBDA = 0
+ RD = 0
+ RS = 0
+ CBD = 0
+ CBS = 0
+ IS = 1E-14
+ PB = .8
+ CGSO = 0
+ CGDO = 0
+ CGBO = 0
+ RSH = 0
+ CJ = 0
+ MJ = .5
+ CJSW = 0
+ MJSW = .33
+ JS = 1E-08
+ TOX = .0000001
+ NSS = 0
+ NFS = 0
+ TPG = 1
+ XJ = 0
+ LD = 0
+ UO = 600
+ UCRIT = 10000
+ UEXP = 0
+ UTRA = 0
+ VMAX = 0
+ NEFF = 1
+ XQC = 1
+ KF = 0
+ AF = 1
+ FC = .5
+ DELTA = 0
+ THETA = 0
+ ETA = 0
+ KAPPA = .2
+ )
.MODEL DFOR D (
+ IS = 6.652648E-9
+ RS = 17.4283533
+ N = 2.0158844
+ TT = 4.8E-7
+ CJO = 6.069386E-11
+ VJ = 0.540285
+ M = 0.2625517
+ EG = 1.11
+ XTI = 3
+ KF = 0
+ AF = 1
+ FC = 0.4868582
+ BV = 9.9999E+13
+ IBV = .001
+ )
.ENDS LM185/27C/RAD
*$
*
*---------------------------------------------------------------MC7805C
.SUBCKT MC7805C Input Output Ground
x1 Input Output Ground x_LM78XX PARAMS:
+ Av_feedback=1665, R1_Value=1020
.ENDS
*$
*
* MANUFACTURERS PART NO. = REF02/883/J (PRECISION MONOLITHIC)
* SUBTYPE: REFERENCE
* THIS FILE CONTAINS 1 PRERAD ROOM TEMPERATURE MACROMODEL OF THE REF02
* PRECISION 5V REFERENCE.
*
*
* PLEASE NOTE THE FOLLOWING:
*
* THIS MODEL IS TO BE USED AT 27 C.
*
*------------------------------------------------------------------------------
*
*
* IN
* | TEMP
* | | GND
* | | | TRIM
* | | | | OUT
* | | | | |
.SUBCKT REF-02 2 3 4 5 6
R1 11 3 1000
R2 3 4 9353.193
R3 1 7 10000
R4 1 8 10000
R6 1000 2 1000
DR6 1000 1 DR6
.MODEL DR6 D(
+ IS = 1E-14
+ RS = 0
+ N = 1
+ TT = 0
+ CJO = 0
+ VJ = 1
+ M = .5
+ EG = 1.11
+ XTI = 3
+ KF = 0
+ AF = 1
+ FC = .5
+ BV = 9.9999E+13
+ IBV = .001
+ )
RBREF 9 5 .5
Q1 7 9 11 NREF1 8
Q2 8 5 3 NREF1
.MODEL NREF1 NPN (
+ IS = 1E-8
+ BF = 200
+ NF = 1
+ VAF = 9.9999E+13
+ IKF = 9.9999E+13
+ ISE = 0
+ NE = 1.5
+ BR = 1
+ NR = 1
+ VAR = 9.9999E+13
+ IKR = 9.9999E+13
+ ISC = 0
+ NC = 2
+ RB = 0
+ IRB = 9.9999E+13
+ RBM = 0
+ RE = 0
+ RC = 0
+ CJE = 0
+ VJE = .75
+ MJE = .33
+ TF = 0
+ XTF = 0
+ VTF = 9.9999E+13
+ ITF = 0
+ PTF = 0
+ CJC = 0
+ VJC = .75
+ MJC = .33
+ XCJC = 1
+ TR = 0
+ CJS = 0
+ VJS = .75
+ MJS = 0
+ XTB = 0
+ EG = 1.11
+ XTI = 3
+ KF = 0
+ AF = 1
+ FC = .5
+ )
R7 12 13 100
C1 13 7 .001P
RC1 13 4 100MEG
EA 120 4 8 7 1000
RIN 8 7 100K
RO 12 120 5
ECL 302 4 2 4 1
V+ 301 302 DC 0
DC+ 12 301 DMOD2
VDC 300 4 DC 1
DC- 300 12 DMOD2
.MODEL DMOD2 D (
+ IS = 1E-20
+ RS = 0
+ N = .5
+ TT = 0
+ CJO = 0
+ VJ = 1
+ M = .5
+ EG = 1.11
+ XTI = 3
+ KF = 0
+ AF = 1
+ FC = .5
+ BV = 9.9999E+13
+ IBV = .001
+ )
RB 200 18 100
DB 200 17 DB
.MODEL DB D(
+ IS = 1E-14
+ RS = 0
+ N = 1
+ TT = 0
+ CJO = 0
+ VJ = 1
+ M = .5
+ EG = 1.11
+ XTI = 3
+ KF = 0
+ AF = 1
+ FC = .5
+ BV = 9.9999E+13
+ IBV = .001
+ )
EB 17 4 13 4 1
IBIAS 2 201 .475M
RTEST 200 201 1K
QPASS 16 18 6 NTYPE
.MODEL NTYPE NPN (
+ IS = 1E-16
+ BF = 53.0948
+ NF = 1
+ VAF = 22.6799
+ IKF = 9.9999E+13
+ ISE = 0
+ NE = 1.5
+ BR = 1
+ NR = 1
+ VAR = 9.9999E+13
+ IKR = 9.9999E+13
+ ISC = 0
+ NC = 2
+ RB = 0
+ IRB = 9.9999E+13
+ RBM = 0
+ RE = 0
+ RC = 0
+ CJE = 0
+ VJE = .75
+ MJE = .33
+ TF = 0
+ XTF = 0
+ VTF = 9.9999E+13
+ ITF = 0
+ PTF = 0
+ CJC = 0
+ VJC = .75
+ MJC = .33
+ XCJC = 1
+ TR = 0
+ CJS = 0
+ VJS = .75
+ MJS = 0
+ XTB = 0
+ EG = 1.11
+ XTI = 3
+ KF = 0
+ AF = 1
+ FC = .5
+ )
DPASS 6 16 DMOD
R15 2 16 20
R12 6 5 6.1K
R11 5 4 2K
.MODEL DMOD D(
+ IS = 1E-14
+ RS = 0
+ N = 1
+ TT = 0
+ CJO = 0
+ VJ = 1
+ M = .5
+ EG = 1.11
+ XTI = 3
+ KF = 0
+ AF = 1
+ FC = .5
+ BV = 9.9999E+13
+ IBV = .001
+ )
.ENDS REF-02
*$
*
*---------------------------------------------------------------UPC7805
.SUBCKT UPC7805 Input Output Ground
x1 Input Output Ground x_LM78XX PARAMS:
+ Av_feedback=1665, R1_Value=1020
.ENDS
*$
*
*---------------------------------------------------------------SG7805C
.SUBCKT SG7805C Input Output Ground
x1 Input Output Ground x_LM78XX PARAMS: